(PID.TID 0000.0001) 
(PID.TID 0000.0001) // ======================================================
(PID.TID 0000.0001) //                      MITgcm UV
(PID.TID 0000.0001) //                      =========
(PID.TID 0000.0001) // ======================================================
(PID.TID 0000.0001) // execution environment starting up...
(PID.TID 0000.0001) 
(PID.TID 0000.0001) // MITgcmUV version:  checkpoint68z
(PID.TID 0000.0001) // Build user:        estebancruz
(PID.TID 0000.0001) // Build host:        wireless-oc142.cicese.mx
(PID.TID 0000.0001) // Build date:        Mon Nov 18 17:39:23 PST 2024
(PID.TID 0000.0001) 
(PID.TID 0000.0001) // =======================================================
(PID.TID 0000.0001) // Execution Environment parameter file "eedata"
(PID.TID 0000.0001) // =======================================================
(PID.TID 0000.0001) ># Example "eedata" file
(PID.TID 0000.0001) ># Lines beginning "#" are comments
(PID.TID 0000.0001) >#  nTx      :: No. threads per process in X
(PID.TID 0000.0001) >#  nTy      :: No. threads per process in Y
(PID.TID 0000.0001) ># debugMode :: print debug msg (sequence of S/R calls)
(PID.TID 0000.0001) > &EEPARMS
(PID.TID 0000.0001) > nTx=1,
(PID.TID 0000.0001) > nTy=1,
(PID.TID 0000.0001) > /
(PID.TID 0000.0001) ># Note: Some systems use & as the namelist terminator (as shown here).
(PID.TID 0000.0001) >#       Other systems use a / character.
(PID.TID 0000.0001) 
(PID.TID 0000.0001) // =======================================================
(PID.TID 0000.0001) // Computational Grid Specification ( see files "SIZE.h" )
(PID.TID 0000.0001) //                                  ( and "eedata"       )
(PID.TID 0000.0001) // =======================================================
(PID.TID 0000.0001)      nPx =    1 ; /* No. processes in X */
(PID.TID 0000.0001)      nPy =    1 ; /* No. processes in Y */
(PID.TID 0000.0001)      nSx =   16 ; /* No. tiles in X per process */
(PID.TID 0000.0001)      nSy =   16 ; /* No. tiles in Y per process */
(PID.TID 0000.0001)      sNx =   17 ; /* Tile size in X */
(PID.TID 0000.0001)      sNy =   20 ; /* Tile size in Y */
(PID.TID 0000.0001)      OLx =    3 ; /* Tile overlap distance in X */
(PID.TID 0000.0001)      OLy =    3 ; /* Tile overlap distance in Y */
(PID.TID 0000.0001)      nTx =    1 ; /* No. threads in X per process */
(PID.TID 0000.0001)      nTy =    1 ; /* No. threads in Y per process */
(PID.TID 0000.0001)       Nr =   40 ; /* No. levels in the vertical   */
(PID.TID 0000.0001)       Nx =  272 ; /* Total domain size in X ( = nPx*nSx*sNx ) */
(PID.TID 0000.0001)       Ny =  320 ; /* Total domain size in Y ( = nPy*nSy*sNy ) */
(PID.TID 0000.0001)   nTiles =  256 ; /* Total no. tiles per process ( = nSx*nSy ) */
(PID.TID 0000.0001)   nProcs =    1 ; /* Total no. processes ( = nPx*nPy ) */
(PID.TID 0000.0001) nThreads =    1 ; /* Total no. threads per process ( = nTx*nTy ) */
(PID.TID 0000.0001) usingMPI =    F ; /* Flag used to control whether MPI is in use */
(PID.TID 0000.0001)                   /*  note: To execute a program with MPI calls */
(PID.TID 0000.0001)                   /*  it must be launched appropriately e.g     */
(PID.TID 0000.0001)                   /*  "mpirun -np 64 ......"                    */
(PID.TID 0000.0001) useCoupler=   F ; /* Flag used to control communications with   */
(PID.TID 0000.0001)                   /*  other model components, through a coupler */
(PID.TID 0000.0001) useNest2W_parent =    F ;/* Control 2-W Nesting comm */
(PID.TID 0000.0001) useNest2W_child  =    F ;/* Control 2-W Nesting comm */
(PID.TID 0000.0001) debugMode =    F ; /* print debug msg. (sequence of S/R calls)  */
(PID.TID 0000.0001) printMapIncludesZeros=    F ; /* print zeros in Std.Output maps */
(PID.TID 0000.0001) maxLengthPrt1D=   65 /* maxLength of 1D array printed to StdOut */
(PID.TID 0000.0001) 
(PID.TID 0000.0001) // ======================================================
(PID.TID 0000.0001) // Mapping of tiles to threads
(PID.TID 0000.0001) // ======================================================
(PID.TID 0000.0001) // -o- Thread   1, tiles (   1:  16,   1:  16)
(PID.TID 0000.0001) 
(PID.TID 0000.0001) // ======================================================
(PID.TID 0000.0001) // Tile <-> Tile connectvity table
(PID.TID 0000.0001) // ======================================================
(PID.TID 0000.0001) // Tile number: 000001 (process no. = 000000)
(PID.TID 0000.0001) //        WEST: Tile = 000016, Process = 000000, Comm = put
(PID.TID 0000.0001) //                bi = 000016, bj = 000001
(PID.TID 0000.0001) //        EAST: Tile = 000002, Process = 000000, Comm = put
(PID.TID 0000.0001) //                bi = 000002, bj = 000001
(PID.TID 0000.0001) //       SOUTH: Tile = 000241, Process = 000000, Comm = put
(PID.TID 0000.0001) //                bi = 000001, bj = 000016
(PID.TID 0000.0001) //       NORTH: Tile = 000017, Process = 000000, Comm = put
(PID.TID 0000.0001) //                bi = 000001, bj = 000002
(PID.TID 0000.0001) // Tile number: 000002 (process no. = 000000)
(PID.TID 0000.0001) //        WEST: Tile = 000001, Process = 000000, Comm = put
(PID.TID 0000.0001) //                bi = 000001, bj = 000001
(PID.TID 0000.0001) //        EAST: Tile = 000003, Process = 000000, Comm = put
(PID.TID 0000.0001) //                bi = 000003, bj = 000001
(PID.TID 0000.0001) //       SOUTH: Tile = 000242, Process = 000000, Comm = put
(PID.TID 0000.0001) //                bi = 000002, bj = 000016
(PID.TID 0000.0001) //       NORTH: Tile = 000018, Process = 000000, Comm = put
(PID.TID 0000.0001) //                bi = 000002, bj = 000002
(PID.TID 0000.0001) // Tile number: 000003 (process no. = 000000)
(PID.TID 0000.0001) //        WEST: Tile = 000002, Process = 000000, Comm = put
(PID.TID 0000.0001) //                bi = 000002, bj = 000001
(PID.TID 0000.0001) //        EAST: Tile = 000004, Process = 000000, Comm = put
(PID.TID 0000.0001) //                bi = 000004, bj = 000001
(PID.TID 0000.0001) //       SOUTH: Tile = 000243, Process = 000000, Comm = put
(PID.TID 0000.0001) //                bi = 000003, bj = 000016
(PID.TID 0000.0001) //       NORTH: Tile = 000019, Process = 000000, Comm = put
(PID.TID 0000.0001) //                bi = 000003, bj = 000002
(PID.TID 0000.0001) // Tile number: 000004 (process no. = 000000)
(PID.TID 0000.0001) //        WEST: Tile = 000003, Process = 000000, Comm = put
(PID.TID 0000.0001) //                bi = 000003, bj = 000001
(PID.TID 0000.0001) //        EAST: Tile = 000005, Process = 000000, Comm = put
(PID.TID 0000.0001) //                bi = 000005, bj = 000001
(PID.TID 0000.0001) //       SOUTH: Tile = 000244, Process = 000000, Comm = put
(PID.TID 0000.0001) //                bi = 000004, bj = 000016
(PID.TID 0000.0001) //       NORTH: Tile = 000020, Process = 000000, Comm = put
(PID.TID 0000.0001) //                bi = 000004, bj = 000002
(PID.TID 0000.0001) // Tile number: 000005 (process no. = 000000)
(PID.TID 0000.0001) //        WEST: Tile = 000004, Process = 000000, Comm = put
(PID.TID 0000.0001) //                bi = 000004, bj = 000001
(PID.TID 0000.0001) //        EAST: Tile = 000006, Process = 000000, Comm = put
(PID.TID 0000.0001) //                bi = 000006, bj = 000001
(PID.TID 0000.0001) //       SOUTH: Tile = 000245, Process = 000000, Comm = put
(PID.TID 0000.0001) //                bi = 000005, bj = 000016
(PID.TID 0000.0001) //       NORTH: Tile = 000021, Process = 000000, Comm = put
(PID.TID 0000.0001) //                bi = 000005, bj = 000002
(PID.TID 0000.0001) // Tile number: 000006 (process no. = 000000)
(PID.TID 0000.0001) //        WEST: Tile = 000005, Process = 000000, Comm = put
(PID.TID 0000.0001) //                bi = 000005, bj = 000001
(PID.TID 0000.0001) //        EAST: Tile = 000007, Process = 000000, Comm = put
(PID.TID 0000.0001) //                bi = 000007, bj = 000001
(PID.TID 0000.0001) //       SOUTH: Tile = 000246, Process = 000000, Comm = put
(PID.TID 0000.0001) //                bi = 000006, bj = 000016
(PID.TID 0000.0001) //       NORTH: Tile = 000022, Process = 000000, Comm = put
(PID.TID 0000.0001) //                bi = 000006, bj = 000002
(PID.TID 0000.0001) // Tile number: 000007 (process no. = 000000)
(PID.TID 0000.0001) //        WEST: Tile = 000006, Process = 000000, Comm = put
(PID.TID 0000.0001) //                bi = 000006, bj = 000001
(PID.TID 0000.0001) //        EAST: Tile = 000008, Process = 000000, Comm = put
(PID.TID 0000.0001) //                bi = 000008, bj = 000001
(PID.TID 0000.0001) //       SOUTH: Tile = 000247, Process = 000000, Comm = put
(PID.TID 0000.0001) //                bi = 000007, bj = 000016
(PID.TID 0000.0001) //       NORTH: Tile = 000023, Process = 000000, Comm = put
(PID.TID 0000.0001) //                bi = 000007, bj = 000002
(PID.TID 0000.0001) // Tile number: 000008 (process no. = 000000)
(PID.TID 0000.0001) //        WEST: Tile = 000007, Process = 000000, Comm = put
(PID.TID 0000.0001) //                bi = 000007, bj = 000001
(PID.TID 0000.0001) //        EAST: Tile = 000009, Process = 000000, Comm = put
(PID.TID 0000.0001) //                bi = 000009, bj = 000001
(PID.TID 0000.0001) //       SOUTH: Tile = 000248, Process = 000000, Comm = put
(PID.TID 0000.0001) //                bi = 000008, bj = 000016
(PID.TID 0000.0001) //       NORTH: Tile = 000024, Process = 000000, Comm = put
(PID.TID 0000.0001) //                bi = 000008, bj = 000002
(PID.TID 0000.0001) // Tile number: 000009 (process no. = 000000)
(PID.TID 0000.0001) //        WEST: Tile = 000008, Process = 000000, Comm = put
(PID.TID 0000.0001) //                bi = 000008, bj = 000001
(PID.TID 0000.0001) //        EAST: Tile = 000010, Process = 000000, Comm = put
(PID.TID 0000.0001) //                bi = 000010, bj = 000001
(PID.TID 0000.0001) //       SOUTH: Tile = 000249, Process = 000000, Comm = put
(PID.TID 0000.0001) //                bi = 000009, bj = 000016
(PID.TID 0000.0001) //       NORTH: Tile = 000025, Process = 000000, Comm = put
(PID.TID 0000.0001) //                bi = 000009, bj = 000002
(PID.TID 0000.0001) // Tile number: 000010 (process no. = 000000)
(PID.TID 0000.0001) //        WEST: Tile = 000009, Process = 000000, Comm = put
(PID.TID 0000.0001) //                bi = 000009, bj = 000001
(PID.TID 0000.0001) //        EAST: Tile = 000011, Process = 000000, Comm = put
(PID.TID 0000.0001) //                bi = 000011, bj = 000001
(PID.TID 0000.0001) //       SOUTH: Tile = 000250, Process = 000000, Comm = put
(PID.TID 0000.0001) //                bi = 000010, bj = 000016
(PID.TID 0000.0001) //       NORTH: Tile = 000026, Process = 000000, Comm = put
(PID.TID 0000.0001) //                bi = 000010, bj = 000002
(PID.TID 0000.0001) // Tile number: 000011 (process no. = 000000)
(PID.TID 0000.0001) //        WEST: Tile = 000010, Process = 000000, Comm = put
(PID.TID 0000.0001) //                bi = 000010, bj = 000001
(PID.TID 0000.0001) //        EAST: Tile = 000012, Process = 000000, Comm = put
(PID.TID 0000.0001) //                bi = 000012, bj = 000001
(PID.TID 0000.0001) //       SOUTH: Tile = 000251, Process = 000000, Comm = put
(PID.TID 0000.0001) //                bi = 000011, bj = 000016
(PID.TID 0000.0001) //       NORTH: Tile = 000027, Process = 000000, Comm = put
(PID.TID 0000.0001) //                bi = 000011, bj = 000002
(PID.TID 0000.0001) // Tile number: 000012 (process no. = 000000)
(PID.TID 0000.0001) //        WEST: Tile = 000011, Process = 000000, Comm = put
(PID.TID 0000.0001) //                bi = 000011, bj = 000001
(PID.TID 0000.0001) //        EAST: Tile = 000013, Process = 000000, Comm = put
(PID.TID 0000.0001) //                bi = 000013, bj = 000001
(PID.TID 0000.0001) //       SOUTH: Tile = 000252, Process = 000000, Comm = put
(PID.TID 0000.0001) //                bi = 000012, bj = 000016
(PID.TID 0000.0001) //       NORTH: Tile = 000028, Process = 000000, Comm = put
(PID.TID 0000.0001) //                bi = 000012, bj = 000002
(PID.TID 0000.0001) // Tile number: 000013 (process no. = 000000)
(PID.TID 0000.0001) //        WEST: Tile = 000012, Process = 000000, Comm = put
(PID.TID 0000.0001) //                bi = 000012, bj = 000001
(PID.TID 0000.0001) //        EAST: Tile = 000014, Process = 000000, Comm = put
(PID.TID 0000.0001) //                bi = 000014, bj = 000001
(PID.TID 0000.0001) //       SOUTH: Tile = 000253, Process = 000000, Comm = put
(PID.TID 0000.0001) //                bi = 000013, bj = 000016
(PID.TID 0000.0001) //       NORTH: Tile = 000029, Process = 000000, Comm = put
(PID.TID 0000.0001) //                bi = 000013, bj = 000002
(PID.TID 0000.0001) // Tile number: 000014 (process no. = 000000)
(PID.TID 0000.0001) //        WEST: Tile = 000013, Process = 000000, Comm = put
(PID.TID 0000.0001) //                bi = 000013, bj = 000001
(PID.TID 0000.0001) //        EAST: Tile = 000015, Process = 000000, Comm = put
(PID.TID 0000.0001) //                bi = 000015, bj = 000001
(PID.TID 0000.0001) //       SOUTH: Tile = 000254, Process = 000000, Comm = put
(PID.TID 0000.0001) //                bi = 000014, bj = 000016
(PID.TID 0000.0001) //       NORTH: Tile = 000030, Process = 000000, Comm = put
(PID.TID 0000.0001) //                bi = 000014, bj = 000002
(PID.TID 0000.0001) // Tile number: 000015 (process no. = 000000)
(PID.TID 0000.0001) //        WEST: Tile = 000014, Process = 000000, Comm = put
(PID.TID 0000.0001) //                bi = 000014, bj = 000001
(PID.TID 0000.0001) //        EAST: Tile = 000016, Process = 000000, Comm = put
(PID.TID 0000.0001) //                bi = 000016, bj = 000001
(PID.TID 0000.0001) //       SOUTH: Tile = 000255, Process = 000000, Comm = put
(PID.TID 0000.0001) //                bi = 000015, bj = 000016
(PID.TID 0000.0001) //       NORTH: Tile = 000031, Process = 000000, Comm = put
(PID.TID 0000.0001) //                bi = 000015, bj = 000002
(PID.TID 0000.0001) // Tile number: 000016 (process no. = 000000)
(PID.TID 0000.0001) //        WEST: Tile = 000015, Process = 000000, Comm = put
(PID.TID 0000.0001) //                bi = 000015, bj = 000001
(PID.TID 0000.0001) //        EAST: Tile = 000001, Process = 000000, Comm = put
(PID.TID 0000.0001) //                bi = 000001, bj = 000001
(PID.TID 0000.0001) //       SOUTH: Tile = 000256, Process = 000000, Comm = put
(PID.TID 0000.0001) //                bi = 000016, bj = 000016
(PID.TID 0000.0001) //       NORTH: Tile = 000032, Process = 000000, Comm = put
(PID.TID 0000.0001) //                bi = 000016, bj = 000002
(PID.TID 0000.0001) // Tile number: 000017 (process no. = 000000)
(PID.TID 0000.0001) //        WEST: Tile = 000032, Process = 000000, Comm = put
(PID.TID 0000.0001) //                bi = 000016, bj = 000002
(PID.TID 0000.0001) //        EAST: Tile = 000018, Process = 000000, Comm = put
(PID.TID 0000.0001) //                bi = 000002, bj = 000002
(PID.TID 0000.0001) //       SOUTH: Tile = 000001, Process = 000000, Comm = put
(PID.TID 0000.0001) //                bi = 000001, bj = 000001
(PID.TID 0000.0001) //       NORTH: Tile = 000033, Process = 000000, Comm = put
(PID.TID 0000.0001) //                bi = 000001, bj = 000003
(PID.TID 0000.0001) // Tile number: 000018 (process no. = 000000)
(PID.TID 0000.0001) //        WEST: Tile = 000017, Process = 000000, Comm = put
(PID.TID 0000.0001) //                bi = 000001, bj = 000002
(PID.TID 0000.0001) //        EAST: Tile = 000019, Process = 000000, Comm = put
(PID.TID 0000.0001) //                bi = 000003, bj = 000002
(PID.TID 0000.0001) //       SOUTH: Tile = 000002, Process = 000000, Comm = put
(PID.TID 0000.0001) //                bi = 000002, bj = 000001
(PID.TID 0000.0001) //       NORTH: Tile = 000034, Process = 000000, Comm = put
(PID.TID 0000.0001) //                bi = 000002, bj = 000003
(PID.TID 0000.0001) // Tile number: 000019 (process no. = 000000)
(PID.TID 0000.0001) //        WEST: Tile = 000018, Process = 000000, Comm = put
(PID.TID 0000.0001) //                bi = 000002, bj = 000002
(PID.TID 0000.0001) //        EAST: Tile = 000020, Process = 000000, Comm = put
(PID.TID 0000.0001) //                bi = 000004, bj = 000002
(PID.TID 0000.0001) //       SOUTH: Tile = 000003, Process = 000000, Comm = put
(PID.TID 0000.0001) //                bi = 000003, bj = 000001
(PID.TID 0000.0001) //       NORTH: Tile = 000035, Process = 000000, Comm = put
(PID.TID 0000.0001) //                bi = 000003, bj = 000003
(PID.TID 0000.0001) // Tile number: 000020 (process no. = 000000)
(PID.TID 0000.0001) //        WEST: Tile = 000019, Process = 000000, Comm = put
(PID.TID 0000.0001) //                bi = 000003, bj = 000002
(PID.TID 0000.0001) //        EAST: Tile = 000021, Process = 000000, Comm = put
(PID.TID 0000.0001) //                bi = 000005, bj = 000002
(PID.TID 0000.0001) //       SOUTH: Tile = 000004, Process = 000000, Comm = put
(PID.TID 0000.0001) //                bi = 000004, bj = 000001
(PID.TID 0000.0001) //       NORTH: Tile = 000036, Process = 000000, Comm = put
(PID.TID 0000.0001) //                bi = 000004, bj = 000003
(PID.TID 0000.0001) // Tile number: 000021 (process no. = 000000)
(PID.TID 0000.0001) //        WEST: Tile = 000020, Process = 000000, Comm = put
(PID.TID 0000.0001) //                bi = 000004, bj = 000002
(PID.TID 0000.0001) //        EAST: Tile = 000022, Process = 000000, Comm = put
(PID.TID 0000.0001) //                bi = 000006, bj = 000002
(PID.TID 0000.0001) //       SOUTH: Tile = 000005, Process = 000000, Comm = put
(PID.TID 0000.0001) //                bi = 000005, bj = 000001
(PID.TID 0000.0001) //       NORTH: Tile = 000037, Process = 000000, Comm = put
(PID.TID 0000.0001) //                bi = 000005, bj = 000003
(PID.TID 0000.0001) // Tile number: 000022 (process no. = 000000)
(PID.TID 0000.0001) //        WEST: Tile = 000021, Process = 000000, Comm = put
(PID.TID 0000.0001) //                bi = 000005, bj = 000002
(PID.TID 0000.0001) //        EAST: Tile = 000023, Process = 000000, Comm = put
(PID.TID 0000.0001) //                bi = 000007, bj = 000002
(PID.TID 0000.0001) //       SOUTH: Tile = 000006, Process = 000000, Comm = put
(PID.TID 0000.0001) //                bi = 000006, bj = 000001
(PID.TID 0000.0001) //       NORTH: Tile = 000038, Process = 000000, Comm = put
(PID.TID 0000.0001) //                bi = 000006, bj = 000003
(PID.TID 0000.0001) // Tile number: 000023 (process no. = 000000)
(PID.TID 0000.0001) //        WEST: Tile = 000022, Process = 000000, Comm = put
(PID.TID 0000.0001) //                bi = 000006, bj = 000002
(PID.TID 0000.0001) //        EAST: Tile = 000024, Process = 000000, Comm = put
(PID.TID 0000.0001) //                bi = 000008, bj = 000002
(PID.TID 0000.0001) //       SOUTH: Tile = 000007, Process = 000000, Comm = put
(PID.TID 0000.0001) //                bi = 000007, bj = 000001
(PID.TID 0000.0001) //       NORTH: Tile = 000039, Process = 000000, Comm = put
(PID.TID 0000.0001) //                bi = 000007, bj = 000003
(PID.TID 0000.0001) // Tile number: 000024 (process no. = 000000)
(PID.TID 0000.0001) //        WEST: Tile = 000023, Process = 000000, Comm = put
(PID.TID 0000.0001) //                bi = 000007, bj = 000002
(PID.TID 0000.0001) //        EAST: Tile = 000025, Process = 000000, Comm = put
(PID.TID 0000.0001) //                bi = 000009, bj = 000002
(PID.TID 0000.0001) //       SOUTH: Tile = 000008, Process = 000000, Comm = put
(PID.TID 0000.0001) //                bi = 000008, bj = 000001
(PID.TID 0000.0001) //       NORTH: Tile = 000040, Process = 000000, Comm = put
(PID.TID 0000.0001) //                bi = 000008, bj = 000003
(PID.TID 0000.0001) // Tile number: 000025 (process no. = 000000)
(PID.TID 0000.0001) //        WEST: Tile = 000024, Process = 000000, Comm = put
(PID.TID 0000.0001) //                bi = 000008, bj = 000002
(PID.TID 0000.0001) //        EAST: Tile = 000026, Process = 000000, Comm = put
(PID.TID 0000.0001) //                bi = 000010, bj = 000002
(PID.TID 0000.0001) //       SOUTH: Tile = 000009, Process = 000000, Comm = put
(PID.TID 0000.0001) //                bi = 000009, bj = 000001
(PID.TID 0000.0001) //       NORTH: Tile = 000041, Process = 000000, Comm = put
(PID.TID 0000.0001) //                bi = 000009, bj = 000003
(PID.TID 0000.0001) // Tile number: 000026 (process no. = 000000)
(PID.TID 0000.0001) //        WEST: Tile = 000025, Process = 000000, Comm = put
(PID.TID 0000.0001) //                bi = 000009, bj = 000002
(PID.TID 0000.0001) //        EAST: Tile = 000027, Process = 000000, Comm = put
(PID.TID 0000.0001) //                bi = 000011, bj = 000002
(PID.TID 0000.0001) //       SOUTH: Tile = 000010, Process = 000000, Comm = put
(PID.TID 0000.0001) //                bi = 000010, bj = 000001
(PID.TID 0000.0001) //       NORTH: Tile = 000042, Process = 000000, Comm = put
(PID.TID 0000.0001) //                bi = 000010, bj = 000003
(PID.TID 0000.0001) // Tile number: 000027 (process no. = 000000)
(PID.TID 0000.0001) //        WEST: Tile = 000026, Process = 000000, Comm = put
(PID.TID 0000.0001) //                bi = 000010, bj = 000002
(PID.TID 0000.0001) //        EAST: Tile = 000028, Process = 000000, Comm = put
(PID.TID 0000.0001) //                bi = 000012, bj = 000002
(PID.TID 0000.0001) //       SOUTH: Tile = 000011, Process = 000000, Comm = put
(PID.TID 0000.0001) //                bi = 000011, bj = 000001
(PID.TID 0000.0001) //       NORTH: Tile = 000043, Process = 000000, Comm = put
(PID.TID 0000.0001) //                bi = 000011, bj = 000003
(PID.TID 0000.0001) // Tile number: 000028 (process no. = 000000)
(PID.TID 0000.0001) //        WEST: Tile = 000027, Process = 000000, Comm = put
(PID.TID 0000.0001) //                bi = 000011, bj = 000002
(PID.TID 0000.0001) //        EAST: Tile = 000029, Process = 000000, Comm = put
(PID.TID 0000.0001) //                bi = 000013, bj = 000002
(PID.TID 0000.0001) //       SOUTH: Tile = 000012, Process = 000000, Comm = put
(PID.TID 0000.0001) //                bi = 000012, bj = 000001
(PID.TID 0000.0001) //       NORTH: Tile = 000044, Process = 000000, Comm = put
(PID.TID 0000.0001) //                bi = 000012, bj = 000003
(PID.TID 0000.0001) // Tile number: 000029 (process no. = 000000)
(PID.TID 0000.0001) //        WEST: Tile = 000028, Process = 000000, Comm = put
(PID.TID 0000.0001) //                bi = 000012, bj = 000002
(PID.TID 0000.0001) //        EAST: Tile = 000030, Process = 000000, Comm = put
(PID.TID 0000.0001) //                bi = 000014, bj = 000002
(PID.TID 0000.0001) //       SOUTH: Tile = 000013, Process = 000000, Comm = put
(PID.TID 0000.0001) //                bi = 000013, bj = 000001
(PID.TID 0000.0001) //       NORTH: Tile = 000045, Process = 000000, Comm = put
(PID.TID 0000.0001) //                bi = 000013, bj = 000003
(PID.TID 0000.0001) // Tile number: 000030 (process no. = 000000)
(PID.TID 0000.0001) //        WEST: Tile = 000029, Process = 000000, Comm = put
(PID.TID 0000.0001) //                bi = 000013, bj = 000002
(PID.TID 0000.0001) //        EAST: Tile = 000031, Process = 000000, Comm = put
(PID.TID 0000.0001) //                bi = 000015, bj = 000002
(PID.TID 0000.0001) //       SOUTH: Tile = 000014, Process = 000000, Comm = put
(PID.TID 0000.0001) //                bi = 000014, bj = 000001
(PID.TID 0000.0001) //       NORTH: Tile = 000046, Process = 000000, Comm = put
(PID.TID 0000.0001) //                bi = 000014, bj = 000003
(PID.TID 0000.0001) // Tile number: 000031 (process no. = 000000)
(PID.TID 0000.0001) //        WEST: Tile = 000030, Process = 000000, Comm = put
(PID.TID 0000.0001) //                bi = 000014, bj = 000002
(PID.TID 0000.0001) //        EAST: Tile = 000032, Process = 000000, Comm = put
(PID.TID 0000.0001) //                bi = 000016, bj = 000002
(PID.TID 0000.0001) //       SOUTH: Tile = 000015, Process = 000000, Comm = put
(PID.TID 0000.0001) //                bi = 000015, bj = 000001
(PID.TID 0000.0001) //       NORTH: Tile = 000047, Process = 000000, Comm = put
(PID.TID 0000.0001) //                bi = 000015, bj = 000003
(PID.TID 0000.0001) // Tile number: 000032 (process no. = 000000)
(PID.TID 0000.0001) //        WEST: Tile = 000031, Process = 000000, Comm = put
(PID.TID 0000.0001) //                bi = 000015, bj = 000002
(PID.TID 0000.0001) //        EAST: Tile = 000017, Process = 000000, Comm = put
(PID.TID 0000.0001) //                bi = 000001, bj = 000002
(PID.TID 0000.0001) //       SOUTH: Tile = 000016, Process = 000000, Comm = put
(PID.TID 0000.0001) //                bi = 000016, bj = 000001
(PID.TID 0000.0001) //       NORTH: Tile = 000048, Process = 000000, Comm = put
(PID.TID 0000.0001) //                bi = 000016, bj = 000003
(PID.TID 0000.0001) // Tile number: 000033 (process no. = 000000)
(PID.TID 0000.0001) //        WEST: Tile = 000048, Process = 000000, Comm = put
(PID.TID 0000.0001) //                bi = 000016, bj = 000003
(PID.TID 0000.0001) //        EAST: Tile = 000034, Process = 000000, Comm = put
(PID.TID 0000.0001) //                bi = 000002, bj = 000003
(PID.TID 0000.0001) //       SOUTH: Tile = 000017, Process = 000000, Comm = put
(PID.TID 0000.0001) //                bi = 000001, bj = 000002
(PID.TID 0000.0001) //       NORTH: Tile = 000049, Process = 000000, Comm = put
(PID.TID 0000.0001) //                bi = 000001, bj = 000004
(PID.TID 0000.0001) // Tile number: 000034 (process no. = 000000)
(PID.TID 0000.0001) //        WEST: Tile = 000033, Process = 000000, Comm = put
(PID.TID 0000.0001) //                bi = 000001, bj = 000003
(PID.TID 0000.0001) //        EAST: Tile = 000035, Process = 000000, Comm = put
(PID.TID 0000.0001) //                bi = 000003, bj = 000003
(PID.TID 0000.0001) //       SOUTH: Tile = 000018, Process = 000000, Comm = put
(PID.TID 0000.0001) //                bi = 000002, bj = 000002
(PID.TID 0000.0001) //       NORTH: Tile = 000050, Process = 000000, Comm = put
(PID.TID 0000.0001) //                bi = 000002, bj = 000004
(PID.TID 0000.0001) // Tile number: 000035 (process no. = 000000)
(PID.TID 0000.0001) //        WEST: Tile = 000034, Process = 000000, Comm = put
(PID.TID 0000.0001) //                bi = 000002, bj = 000003
(PID.TID 0000.0001) //        EAST: Tile = 000036, Process = 000000, Comm = put
(PID.TID 0000.0001) //                bi = 000004, bj = 000003
(PID.TID 0000.0001) //       SOUTH: Tile = 000019, Process = 000000, Comm = put
(PID.TID 0000.0001) //                bi = 000003, bj = 000002
(PID.TID 0000.0001) //       NORTH: Tile = 000051, Process = 000000, Comm = put
(PID.TID 0000.0001) //                bi = 000003, bj = 000004
(PID.TID 0000.0001) // Tile number: 000036 (process no. = 000000)
(PID.TID 0000.0001) //        WEST: Tile = 000035, Process = 000000, Comm = put
(PID.TID 0000.0001) //                bi = 000003, bj = 000003
(PID.TID 0000.0001) //        EAST: Tile = 000037, Process = 000000, Comm = put
(PID.TID 0000.0001) //                bi = 000005, bj = 000003
(PID.TID 0000.0001) //       SOUTH: Tile = 000020, Process = 000000, Comm = put
(PID.TID 0000.0001) //                bi = 000004, bj = 000002
(PID.TID 0000.0001) //       NORTH: Tile = 000052, Process = 000000, Comm = put
(PID.TID 0000.0001) //                bi = 000004, bj = 000004
(PID.TID 0000.0001) // Tile number: 000037 (process no. = 000000)
(PID.TID 0000.0001) //        WEST: Tile = 000036, Process = 000000, Comm = put
(PID.TID 0000.0001) //                bi = 000004, bj = 000003
(PID.TID 0000.0001) //        EAST: Tile = 000038, Process = 000000, Comm = put
(PID.TID 0000.0001) //                bi = 000006, bj = 000003
(PID.TID 0000.0001) //       SOUTH: Tile = 000021, Process = 000000, Comm = put
(PID.TID 0000.0001) //                bi = 000005, bj = 000002
(PID.TID 0000.0001) //       NORTH: Tile = 000053, Process = 000000, Comm = put
(PID.TID 0000.0001) //                bi = 000005, bj = 000004
(PID.TID 0000.0001) // Tile number: 000038 (process no. = 000000)
(PID.TID 0000.0001) //        WEST: Tile = 000037, Process = 000000, Comm = put
(PID.TID 0000.0001) //                bi = 000005, bj = 000003
(PID.TID 0000.0001) //        EAST: Tile = 000039, Process = 000000, Comm = put
(PID.TID 0000.0001) //                bi = 000007, bj = 000003
(PID.TID 0000.0001) //       SOUTH: Tile = 000022, Process = 000000, Comm = put
(PID.TID 0000.0001) //                bi = 000006, bj = 000002
(PID.TID 0000.0001) //       NORTH: Tile = 000054, Process = 000000, Comm = put
(PID.TID 0000.0001) //                bi = 000006, bj = 000004
(PID.TID 0000.0001) // Tile number: 000039 (process no. = 000000)
(PID.TID 0000.0001) //        WEST: Tile = 000038, Process = 000000, Comm = put
(PID.TID 0000.0001) //                bi = 000006, bj = 000003
(PID.TID 0000.0001) //        EAST: Tile = 000040, Process = 000000, Comm = put
(PID.TID 0000.0001) //                bi = 000008, bj = 000003
(PID.TID 0000.0001) //       SOUTH: Tile = 000023, Process = 000000, Comm = put
(PID.TID 0000.0001) //                bi = 000007, bj = 000002
(PID.TID 0000.0001) //       NORTH: Tile = 000055, Process = 000000, Comm = put
(PID.TID 0000.0001) //                bi = 000007, bj = 000004
(PID.TID 0000.0001) // Tile number: 000040 (process no. = 000000)
(PID.TID 0000.0001) //        WEST: Tile = 000039, Process = 000000, Comm = put
(PID.TID 0000.0001) //                bi = 000007, bj = 000003
(PID.TID 0000.0001) //        EAST: Tile = 000041, Process = 000000, Comm = put
(PID.TID 0000.0001) //                bi = 000009, bj = 000003
(PID.TID 0000.0001) //       SOUTH: Tile = 000024, Process = 000000, Comm = put
(PID.TID 0000.0001) //                bi = 000008, bj = 000002
(PID.TID 0000.0001) //       NORTH: Tile = 000056, Process = 000000, Comm = put
(PID.TID 0000.0001) //                bi = 000008, bj = 000004
(PID.TID 0000.0001) // Tile number: 000041 (process no. = 000000)
(PID.TID 0000.0001) //        WEST: Tile = 000040, Process = 000000, Comm = put
(PID.TID 0000.0001) //                bi = 000008, bj = 000003
(PID.TID 0000.0001) //        EAST: Tile = 000042, Process = 000000, Comm = put
(PID.TID 0000.0001) //                bi = 000010, bj = 000003
(PID.TID 0000.0001) //       SOUTH: Tile = 000025, Process = 000000, Comm = put
(PID.TID 0000.0001) //                bi = 000009, bj = 000002
(PID.TID 0000.0001) //       NORTH: Tile = 000057, Process = 000000, Comm = put
(PID.TID 0000.0001) //                bi = 000009, bj = 000004
(PID.TID 0000.0001) // Tile number: 000042 (process no. = 000000)
(PID.TID 0000.0001) //        WEST: Tile = 000041, Process = 000000, Comm = put
(PID.TID 0000.0001) //                bi = 000009, bj = 000003
(PID.TID 0000.0001) //        EAST: Tile = 000043, Process = 000000, Comm = put
(PID.TID 0000.0001) //                bi = 000011, bj = 000003
(PID.TID 0000.0001) //       SOUTH: Tile = 000026, Process = 000000, Comm = put
(PID.TID 0000.0001) //                bi = 000010, bj = 000002
(PID.TID 0000.0001) //       NORTH: Tile = 000058, Process = 000000, Comm = put
(PID.TID 0000.0001) //                bi = 000010, bj = 000004
(PID.TID 0000.0001) // Tile number: 000043 (process no. = 000000)
(PID.TID 0000.0001) //        WEST: Tile = 000042, Process = 000000, Comm = put
(PID.TID 0000.0001) //                bi = 000010, bj = 000003
(PID.TID 0000.0001) //        EAST: Tile = 000044, Process = 000000, Comm = put
(PID.TID 0000.0001) //                bi = 000012, bj = 000003
(PID.TID 0000.0001) //       SOUTH: Tile = 000027, Process = 000000, Comm = put
(PID.TID 0000.0001) //                bi = 000011, bj = 000002
(PID.TID 0000.0001) //       NORTH: Tile = 000059, Process = 000000, Comm = put
(PID.TID 0000.0001) //                bi = 000011, bj = 000004
(PID.TID 0000.0001) // Tile number: 000044 (process no. = 000000)
(PID.TID 0000.0001) //        WEST: Tile = 000043, Process = 000000, Comm = put
(PID.TID 0000.0001) //                bi = 000011, bj = 000003
(PID.TID 0000.0001) //        EAST: Tile = 000045, Process = 000000, Comm = put
(PID.TID 0000.0001) //                bi = 000013, bj = 000003
(PID.TID 0000.0001) //       SOUTH: Tile = 000028, Process = 000000, Comm = put
(PID.TID 0000.0001) //                bi = 000012, bj = 000002
(PID.TID 0000.0001) //       NORTH: Tile = 000060, Process = 000000, Comm = put
(PID.TID 0000.0001) //                bi = 000012, bj = 000004
(PID.TID 0000.0001) // Tile number: 000045 (process no. = 000000)
(PID.TID 0000.0001) //        WEST: Tile = 000044, Process = 000000, Comm = put
(PID.TID 0000.0001) //                bi = 000012, bj = 000003
(PID.TID 0000.0001) //        EAST: Tile = 000046, Process = 000000, Comm = put
(PID.TID 0000.0001) //                bi = 000014, bj = 000003
(PID.TID 0000.0001) //       SOUTH: Tile = 000029, Process = 000000, Comm = put
(PID.TID 0000.0001) //                bi = 000013, bj = 000002
(PID.TID 0000.0001) //       NORTH: Tile = 000061, Process = 000000, Comm = put
(PID.TID 0000.0001) //                bi = 000013, bj = 000004
(PID.TID 0000.0001) // Tile number: 000046 (process no. = 000000)
(PID.TID 0000.0001) //        WEST: Tile = 000045, Process = 000000, Comm = put
(PID.TID 0000.0001) //                bi = 000013, bj = 000003
(PID.TID 0000.0001) //        EAST: Tile = 000047, Process = 000000, Comm = put
(PID.TID 0000.0001) //                bi = 000015, bj = 000003
(PID.TID 0000.0001) //       SOUTH: Tile = 000030, Process = 000000, Comm = put
(PID.TID 0000.0001) //                bi = 000014, bj = 000002
(PID.TID 0000.0001) //       NORTH: Tile = 000062, Process = 000000, Comm = put
(PID.TID 0000.0001) //                bi = 000014, bj = 000004
(PID.TID 0000.0001) // Tile number: 000047 (process no. = 000000)
(PID.TID 0000.0001) //        WEST: Tile = 000046, Process = 000000, Comm = put
(PID.TID 0000.0001) //                bi = 000014, bj = 000003
(PID.TID 0000.0001) //        EAST: Tile = 000048, Process = 000000, Comm = put
(PID.TID 0000.0001) //                bi = 000016, bj = 000003
(PID.TID 0000.0001) //       SOUTH: Tile = 000031, Process = 000000, Comm = put
(PID.TID 0000.0001) //                bi = 000015, bj = 000002
(PID.TID 0000.0001) //       NORTH: Tile = 000063, Process = 000000, Comm = put
(PID.TID 0000.0001) //                bi = 000015, bj = 000004
(PID.TID 0000.0001) // Tile number: 000048 (process no. = 000000)
(PID.TID 0000.0001) //        WEST: Tile = 000047, Process = 000000, Comm = put
(PID.TID 0000.0001) //                bi = 000015, bj = 000003
(PID.TID 0000.0001) //        EAST: Tile = 000033, Process = 000000, Comm = put
(PID.TID 0000.0001) //                bi = 000001, bj = 000003
(PID.TID 0000.0001) //       SOUTH: Tile = 000032, Process = 000000, Comm = put
(PID.TID 0000.0001) //                bi = 000016, bj = 000002
(PID.TID 0000.0001) //       NORTH: Tile = 000064, Process = 000000, Comm = put
(PID.TID 0000.0001) //                bi = 000016, bj = 000004
(PID.TID 0000.0001) // Tile number: 000049 (process no. = 000000)
(PID.TID 0000.0001) //        WEST: Tile = 000064, Process = 000000, Comm = put
(PID.TID 0000.0001) //                bi = 000016, bj = 000004
(PID.TID 0000.0001) //        EAST: Tile = 000050, Process = 000000, Comm = put
(PID.TID 0000.0001) //                bi = 000002, bj = 000004
(PID.TID 0000.0001) //       SOUTH: Tile = 000033, Process = 000000, Comm = put
(PID.TID 0000.0001) //                bi = 000001, bj = 000003
(PID.TID 0000.0001) //       NORTH: Tile = 000065, Process = 000000, Comm = put
(PID.TID 0000.0001) //                bi = 000001, bj = 000005
(PID.TID 0000.0001) // Tile number: 000050 (process no. = 000000)
(PID.TID 0000.0001) //        WEST: Tile = 000049, Process = 000000, Comm = put
(PID.TID 0000.0001) //                bi = 000001, bj = 000004
(PID.TID 0000.0001) //        EAST: Tile = 000051, Process = 000000, Comm = put
(PID.TID 0000.0001) //                bi = 000003, bj = 000004
(PID.TID 0000.0001) //       SOUTH: Tile = 000034, Process = 000000, Comm = put
(PID.TID 0000.0001) //                bi = 000002, bj = 000003
(PID.TID 0000.0001) //       NORTH: Tile = 000066, Process = 000000, Comm = put
(PID.TID 0000.0001) //                bi = 000002, bj = 000005
(PID.TID 0000.0001) // Tile number: 000051 (process no. = 000000)
(PID.TID 0000.0001) //        WEST: Tile = 000050, Process = 000000, Comm = put
(PID.TID 0000.0001) //                bi = 000002, bj = 000004
(PID.TID 0000.0001) //        EAST: Tile = 000052, Process = 000000, Comm = put
(PID.TID 0000.0001) //                bi = 000004, bj = 000004
(PID.TID 0000.0001) //       SOUTH: Tile = 000035, Process = 000000, Comm = put
(PID.TID 0000.0001) //                bi = 000003, bj = 000003
(PID.TID 0000.0001) //       NORTH: Tile = 000067, Process = 000000, Comm = put
(PID.TID 0000.0001) //                bi = 000003, bj = 000005
(PID.TID 0000.0001) // Tile number: 000052 (process no. = 000000)
(PID.TID 0000.0001) //        WEST: Tile = 000051, Process = 000000, Comm = put
(PID.TID 0000.0001) //                bi = 000003, bj = 000004
(PID.TID 0000.0001) //        EAST: Tile = 000053, Process = 000000, Comm = put
(PID.TID 0000.0001) //                bi = 000005, bj = 000004
(PID.TID 0000.0001) //       SOUTH: Tile = 000036, Process = 000000, Comm = put
(PID.TID 0000.0001) //                bi = 000004, bj = 000003
(PID.TID 0000.0001) //       NORTH: Tile = 000068, Process = 000000, Comm = put
(PID.TID 0000.0001) //                bi = 000004, bj = 000005
(PID.TID 0000.0001) // Tile number: 000053 (process no. = 000000)
(PID.TID 0000.0001) //        WEST: Tile = 000052, Process = 000000, Comm = put
(PID.TID 0000.0001) //                bi = 000004, bj = 000004
(PID.TID 0000.0001) //        EAST: Tile = 000054, Process = 000000, Comm = put
(PID.TID 0000.0001) //                bi = 000006, bj = 000004
(PID.TID 0000.0001) //       SOUTH: Tile = 000037, Process = 000000, Comm = put
(PID.TID 0000.0001) //                bi = 000005, bj = 000003
(PID.TID 0000.0001) //       NORTH: Tile = 000069, Process = 000000, Comm = put
(PID.TID 0000.0001) //                bi = 000005, bj = 000005
(PID.TID 0000.0001) // Tile number: 000054 (process no. = 000000)
(PID.TID 0000.0001) //        WEST: Tile = 000053, Process = 000000, Comm = put
(PID.TID 0000.0001) //                bi = 000005, bj = 000004
(PID.TID 0000.0001) //        EAST: Tile = 000055, Process = 000000, Comm = put
(PID.TID 0000.0001) //                bi = 000007, bj = 000004
(PID.TID 0000.0001) //       SOUTH: Tile = 000038, Process = 000000, Comm = put
(PID.TID 0000.0001) //                bi = 000006, bj = 000003
(PID.TID 0000.0001) //       NORTH: Tile = 000070, Process = 000000, Comm = put
(PID.TID 0000.0001) //                bi = 000006, bj = 000005
(PID.TID 0000.0001) // Tile number: 000055 (process no. = 000000)
(PID.TID 0000.0001) //        WEST: Tile = 000054, Process = 000000, Comm = put
(PID.TID 0000.0001) //                bi = 000006, bj = 000004
(PID.TID 0000.0001) //        EAST: Tile = 000056, Process = 000000, Comm = put
(PID.TID 0000.0001) //                bi = 000008, bj = 000004
(PID.TID 0000.0001) //       SOUTH: Tile = 000039, Process = 000000, Comm = put
(PID.TID 0000.0001) //                bi = 000007, bj = 000003
(PID.TID 0000.0001) //       NORTH: Tile = 000071, Process = 000000, Comm = put
(PID.TID 0000.0001) //                bi = 000007, bj = 000005
(PID.TID 0000.0001) // Tile number: 000056 (process no. = 000000)
(PID.TID 0000.0001) //        WEST: Tile = 000055, Process = 000000, Comm = put
(PID.TID 0000.0001) //                bi = 000007, bj = 000004
(PID.TID 0000.0001) //        EAST: Tile = 000057, Process = 000000, Comm = put
(PID.TID 0000.0001) //                bi = 000009, bj = 000004
(PID.TID 0000.0001) //       SOUTH: Tile = 000040, Process = 000000, Comm = put
(PID.TID 0000.0001) //                bi = 000008, bj = 000003
(PID.TID 0000.0001) //       NORTH: Tile = 000072, Process = 000000, Comm = put
(PID.TID 0000.0001) //                bi = 000008, bj = 000005
(PID.TID 0000.0001) // Tile number: 000057 (process no. = 000000)
(PID.TID 0000.0001) //        WEST: Tile = 000056, Process = 000000, Comm = put
(PID.TID 0000.0001) //                bi = 000008, bj = 000004
(PID.TID 0000.0001) //        EAST: Tile = 000058, Process = 000000, Comm = put
(PID.TID 0000.0001) //                bi = 000010, bj = 000004
(PID.TID 0000.0001) //       SOUTH: Tile = 000041, Process = 000000, Comm = put
(PID.TID 0000.0001) //                bi = 000009, bj = 000003
(PID.TID 0000.0001) //       NORTH: Tile = 000073, Process = 000000, Comm = put
(PID.TID 0000.0001) //                bi = 000009, bj = 000005
(PID.TID 0000.0001) // Tile number: 000058 (process no. = 000000)
(PID.TID 0000.0001) //        WEST: Tile = 000057, Process = 000000, Comm = put
(PID.TID 0000.0001) //                bi = 000009, bj = 000004
(PID.TID 0000.0001) //        EAST: Tile = 000059, Process = 000000, Comm = put
(PID.TID 0000.0001) //                bi = 000011, bj = 000004
(PID.TID 0000.0001) //       SOUTH: Tile = 000042, Process = 000000, Comm = put
(PID.TID 0000.0001) //                bi = 000010, bj = 000003
(PID.TID 0000.0001) //       NORTH: Tile = 000074, Process = 000000, Comm = put
(PID.TID 0000.0001) //                bi = 000010, bj = 000005
(PID.TID 0000.0001) // Tile number: 000059 (process no. = 000000)
(PID.TID 0000.0001) //        WEST: Tile = 000058, Process = 000000, Comm = put
(PID.TID 0000.0001) //                bi = 000010, bj = 000004
(PID.TID 0000.0001) //        EAST: Tile = 000060, Process = 000000, Comm = put
(PID.TID 0000.0001) //                bi = 000012, bj = 000004
(PID.TID 0000.0001) //       SOUTH: Tile = 000043, Process = 000000, Comm = put
(PID.TID 0000.0001) //                bi = 000011, bj = 000003
(PID.TID 0000.0001) //       NORTH: Tile = 000075, Process = 000000, Comm = put
(PID.TID 0000.0001) //                bi = 000011, bj = 000005
(PID.TID 0000.0001) // Tile number: 000060 (process no. = 000000)
(PID.TID 0000.0001) //        WEST: Tile = 000059, Process = 000000, Comm = put
(PID.TID 0000.0001) //                bi = 000011, bj = 000004
(PID.TID 0000.0001) //        EAST: Tile = 000061, Process = 000000, Comm = put
(PID.TID 0000.0001) //                bi = 000013, bj = 000004
(PID.TID 0000.0001) //       SOUTH: Tile = 000044, Process = 000000, Comm = put
(PID.TID 0000.0001) //                bi = 000012, bj = 000003
(PID.TID 0000.0001) //       NORTH: Tile = 000076, Process = 000000, Comm = put
(PID.TID 0000.0001) //                bi = 000012, bj = 000005
(PID.TID 0000.0001) // Tile number: 000061 (process no. = 000000)
(PID.TID 0000.0001) //        WEST: Tile = 000060, Process = 000000, Comm = put
(PID.TID 0000.0001) //                bi = 000012, bj = 000004
(PID.TID 0000.0001) //        EAST: Tile = 000062, Process = 000000, Comm = put
(PID.TID 0000.0001) //                bi = 000014, bj = 000004
(PID.TID 0000.0001) //       SOUTH: Tile = 000045, Process = 000000, Comm = put
(PID.TID 0000.0001) //                bi = 000013, bj = 000003
(PID.TID 0000.0001) //       NORTH: Tile = 000077, Process = 000000, Comm = put
(PID.TID 0000.0001) //                bi = 000013, bj = 000005
(PID.TID 0000.0001) // Tile number: 000062 (process no. = 000000)
(PID.TID 0000.0001) //        WEST: Tile = 000061, Process = 000000, Comm = put
(PID.TID 0000.0001) //                bi = 000013, bj = 000004
(PID.TID 0000.0001) //        EAST: Tile = 000063, Process = 000000, Comm = put
(PID.TID 0000.0001) //                bi = 000015, bj = 000004
(PID.TID 0000.0001) //       SOUTH: Tile = 000046, Process = 000000, Comm = put
(PID.TID 0000.0001) //                bi = 000014, bj = 000003
(PID.TID 0000.0001) //       NORTH: Tile = 000078, Process = 000000, Comm = put
(PID.TID 0000.0001) //                bi = 000014, bj = 000005
(PID.TID 0000.0001) // Tile number: 000063 (process no. = 000000)
(PID.TID 0000.0001) //        WEST: Tile = 000062, Process = 000000, Comm = put
(PID.TID 0000.0001) //                bi = 000014, bj = 000004
(PID.TID 0000.0001) //        EAST: Tile = 000064, Process = 000000, Comm = put
(PID.TID 0000.0001) //                bi = 000016, bj = 000004
(PID.TID 0000.0001) //       SOUTH: Tile = 000047, Process = 000000, Comm = put
(PID.TID 0000.0001) //                bi = 000015, bj = 000003
(PID.TID 0000.0001) //       NORTH: Tile = 000079, Process = 000000, Comm = put
(PID.TID 0000.0001) //                bi = 000015, bj = 000005
(PID.TID 0000.0001) // Tile number: 000064 (process no. = 000000)
(PID.TID 0000.0001) //        WEST: Tile = 000063, Process = 000000, Comm = put
(PID.TID 0000.0001) //                bi = 000015, bj = 000004
(PID.TID 0000.0001) //        EAST: Tile = 000049, Process = 000000, Comm = put
(PID.TID 0000.0001) //                bi = 000001, bj = 000004
(PID.TID 0000.0001) //       SOUTH: Tile = 000048, Process = 000000, Comm = put
(PID.TID 0000.0001) //                bi = 000016, bj = 000003
(PID.TID 0000.0001) //       NORTH: Tile = 000080, Process = 000000, Comm = put
(PID.TID 0000.0001) //                bi = 000016, bj = 000005
(PID.TID 0000.0001) // Tile number: 000065 (process no. = 000000)
(PID.TID 0000.0001) //        WEST: Tile = 000080, Process = 000000, Comm = put
(PID.TID 0000.0001) //                bi = 000016, bj = 000005
(PID.TID 0000.0001) //        EAST: Tile = 000066, Process = 000000, Comm = put
(PID.TID 0000.0001) //                bi = 000002, bj = 000005
(PID.TID 0000.0001) //       SOUTH: Tile = 000049, Process = 000000, Comm = put
(PID.TID 0000.0001) //                bi = 000001, bj = 000004
(PID.TID 0000.0001) //       NORTH: Tile = 000081, Process = 000000, Comm = put
(PID.TID 0000.0001) //                bi = 000001, bj = 000006
(PID.TID 0000.0001) // Tile number: 000066 (process no. = 000000)
(PID.TID 0000.0001) //        WEST: Tile = 000065, Process = 000000, Comm = put
(PID.TID 0000.0001) //                bi = 000001, bj = 000005
(PID.TID 0000.0001) //        EAST: Tile = 000067, Process = 000000, Comm = put
(PID.TID 0000.0001) //                bi = 000003, bj = 000005
(PID.TID 0000.0001) //       SOUTH: Tile = 000050, Process = 000000, Comm = put
(PID.TID 0000.0001) //                bi = 000002, bj = 000004
(PID.TID 0000.0001) //       NORTH: Tile = 000082, Process = 000000, Comm = put
(PID.TID 0000.0001) //                bi = 000002, bj = 000006
(PID.TID 0000.0001) // Tile number: 000067 (process no. = 000000)
(PID.TID 0000.0001) //        WEST: Tile = 000066, Process = 000000, Comm = put
(PID.TID 0000.0001) //                bi = 000002, bj = 000005
(PID.TID 0000.0001) //        EAST: Tile = 000068, Process = 000000, Comm = put
(PID.TID 0000.0001) //                bi = 000004, bj = 000005
(PID.TID 0000.0001) //       SOUTH: Tile = 000051, Process = 000000, Comm = put
(PID.TID 0000.0001) //                bi = 000003, bj = 000004
(PID.TID 0000.0001) //       NORTH: Tile = 000083, Process = 000000, Comm = put
(PID.TID 0000.0001) //                bi = 000003, bj = 000006
(PID.TID 0000.0001) // Tile number: 000068 (process no. = 000000)
(PID.TID 0000.0001) //        WEST: Tile = 000067, Process = 000000, Comm = put
(PID.TID 0000.0001) //                bi = 000003, bj = 000005
(PID.TID 0000.0001) //        EAST: Tile = 000069, Process = 000000, Comm = put
(PID.TID 0000.0001) //                bi = 000005, bj = 000005
(PID.TID 0000.0001) //       SOUTH: Tile = 000052, Process = 000000, Comm = put
(PID.TID 0000.0001) //                bi = 000004, bj = 000004
(PID.TID 0000.0001) //       NORTH: Tile = 000084, Process = 000000, Comm = put
(PID.TID 0000.0001) //                bi = 000004, bj = 000006
(PID.TID 0000.0001) // Tile number: 000069 (process no. = 000000)
(PID.TID 0000.0001) //        WEST: Tile = 000068, Process = 000000, Comm = put
(PID.TID 0000.0001) //                bi = 000004, bj = 000005
(PID.TID 0000.0001) //        EAST: Tile = 000070, Process = 000000, Comm = put
(PID.TID 0000.0001) //                bi = 000006, bj = 000005
(PID.TID 0000.0001) //       SOUTH: Tile = 000053, Process = 000000, Comm = put
(PID.TID 0000.0001) //                bi = 000005, bj = 000004
(PID.TID 0000.0001) //       NORTH: Tile = 000085, Process = 000000, Comm = put
(PID.TID 0000.0001) //                bi = 000005, bj = 000006
(PID.TID 0000.0001) // Tile number: 000070 (process no. = 000000)
(PID.TID 0000.0001) //        WEST: Tile = 000069, Process = 000000, Comm = put
(PID.TID 0000.0001) //                bi = 000005, bj = 000005
(PID.TID 0000.0001) //        EAST: Tile = 000071, Process = 000000, Comm = put
(PID.TID 0000.0001) //                bi = 000007, bj = 000005
(PID.TID 0000.0001) //       SOUTH: Tile = 000054, Process = 000000, Comm = put
(PID.TID 0000.0001) //                bi = 000006, bj = 000004
(PID.TID 0000.0001) //       NORTH: Tile = 000086, Process = 000000, Comm = put
(PID.TID 0000.0001) //                bi = 000006, bj = 000006
(PID.TID 0000.0001) // Tile number: 000071 (process no. = 000000)
(PID.TID 0000.0001) //        WEST: Tile = 000070, Process = 000000, Comm = put
(PID.TID 0000.0001) //                bi = 000006, bj = 000005
(PID.TID 0000.0001) //        EAST: Tile = 000072, Process = 000000, Comm = put
(PID.TID 0000.0001) //                bi = 000008, bj = 000005
(PID.TID 0000.0001) //       SOUTH: Tile = 000055, Process = 000000, Comm = put
(PID.TID 0000.0001) //                bi = 000007, bj = 000004
(PID.TID 0000.0001) //       NORTH: Tile = 000087, Process = 000000, Comm = put
(PID.TID 0000.0001) //                bi = 000007, bj = 000006
(PID.TID 0000.0001) // Tile number: 000072 (process no. = 000000)
(PID.TID 0000.0001) //        WEST: Tile = 000071, Process = 000000, Comm = put
(PID.TID 0000.0001) //                bi = 000007, bj = 000005
(PID.TID 0000.0001) //        EAST: Tile = 000073, Process = 000000, Comm = put
(PID.TID 0000.0001) //                bi = 000009, bj = 000005
(PID.TID 0000.0001) //       SOUTH: Tile = 000056, Process = 000000, Comm = put
(PID.TID 0000.0001) //                bi = 000008, bj = 000004
(PID.TID 0000.0001) //       NORTH: Tile = 000088, Process = 000000, Comm = put
(PID.TID 0000.0001) //                bi = 000008, bj = 000006
(PID.TID 0000.0001) // Tile number: 000073 (process no. = 000000)
(PID.TID 0000.0001) //        WEST: Tile = 000072, Process = 000000, Comm = put
(PID.TID 0000.0001) //                bi = 000008, bj = 000005
(PID.TID 0000.0001) //        EAST: Tile = 000074, Process = 000000, Comm = put
(PID.TID 0000.0001) //                bi = 000010, bj = 000005
(PID.TID 0000.0001) //       SOUTH: Tile = 000057, Process = 000000, Comm = put
(PID.TID 0000.0001) //                bi = 000009, bj = 000004
(PID.TID 0000.0001) //       NORTH: Tile = 000089, Process = 000000, Comm = put
(PID.TID 0000.0001) //                bi = 000009, bj = 000006
(PID.TID 0000.0001) // Tile number: 000074 (process no. = 000000)
(PID.TID 0000.0001) //        WEST: Tile = 000073, Process = 000000, Comm = put
(PID.TID 0000.0001) //                bi = 000009, bj = 000005
(PID.TID 0000.0001) //        EAST: Tile = 000075, Process = 000000, Comm = put
(PID.TID 0000.0001) //                bi = 000011, bj = 000005
(PID.TID 0000.0001) //       SOUTH: Tile = 000058, Process = 000000, Comm = put
(PID.TID 0000.0001) //                bi = 000010, bj = 000004
(PID.TID 0000.0001) //       NORTH: Tile = 000090, Process = 000000, Comm = put
(PID.TID 0000.0001) //                bi = 000010, bj = 000006
(PID.TID 0000.0001) // Tile number: 000075 (process no. = 000000)
(PID.TID 0000.0001) //        WEST: Tile = 000074, Process = 000000, Comm = put
(PID.TID 0000.0001) //                bi = 000010, bj = 000005
(PID.TID 0000.0001) //        EAST: Tile = 000076, Process = 000000, Comm = put
(PID.TID 0000.0001) //                bi = 000012, bj = 000005
(PID.TID 0000.0001) //       SOUTH: Tile = 000059, Process = 000000, Comm = put
(PID.TID 0000.0001) //                bi = 000011, bj = 000004
(PID.TID 0000.0001) //       NORTH: Tile = 000091, Process = 000000, Comm = put
(PID.TID 0000.0001) //                bi = 000011, bj = 000006
(PID.TID 0000.0001) // Tile number: 000076 (process no. = 000000)
(PID.TID 0000.0001) //        WEST: Tile = 000075, Process = 000000, Comm = put
(PID.TID 0000.0001) //                bi = 000011, bj = 000005
(PID.TID 0000.0001) //        EAST: Tile = 000077, Process = 000000, Comm = put
(PID.TID 0000.0001) //                bi = 000013, bj = 000005
(PID.TID 0000.0001) //       SOUTH: Tile = 000060, Process = 000000, Comm = put
(PID.TID 0000.0001) //                bi = 000012, bj = 000004
(PID.TID 0000.0001) //       NORTH: Tile = 000092, Process = 000000, Comm = put
(PID.TID 0000.0001) //                bi = 000012, bj = 000006
(PID.TID 0000.0001) // Tile number: 000077 (process no. = 000000)
(PID.TID 0000.0001) //        WEST: Tile = 000076, Process = 000000, Comm = put
(PID.TID 0000.0001) //                bi = 000012, bj = 000005
(PID.TID 0000.0001) //        EAST: Tile = 000078, Process = 000000, Comm = put
(PID.TID 0000.0001) //                bi = 000014, bj = 000005
(PID.TID 0000.0001) //       SOUTH: Tile = 000061, Process = 000000, Comm = put
(PID.TID 0000.0001) //                bi = 000013, bj = 000004
(PID.TID 0000.0001) //       NORTH: Tile = 000093, Process = 000000, Comm = put
(PID.TID 0000.0001) //                bi = 000013, bj = 000006
(PID.TID 0000.0001) // Tile number: 000078 (process no. = 000000)
(PID.TID 0000.0001) //        WEST: Tile = 000077, Process = 000000, Comm = put
(PID.TID 0000.0001) //                bi = 000013, bj = 000005
(PID.TID 0000.0001) //        EAST: Tile = 000079, Process = 000000, Comm = put
(PID.TID 0000.0001) //                bi = 000015, bj = 000005
(PID.TID 0000.0001) //       SOUTH: Tile = 000062, Process = 000000, Comm = put
(PID.TID 0000.0001) //                bi = 000014, bj = 000004
(PID.TID 0000.0001) //       NORTH: Tile = 000094, Process = 000000, Comm = put
(PID.TID 0000.0001) //                bi = 000014, bj = 000006
(PID.TID 0000.0001) // Tile number: 000079 (process no. = 000000)
(PID.TID 0000.0001) //        WEST: Tile = 000078, Process = 000000, Comm = put
(PID.TID 0000.0001) //                bi = 000014, bj = 000005
(PID.TID 0000.0001) //        EAST: Tile = 000080, Process = 000000, Comm = put
(PID.TID 0000.0001) //                bi = 000016, bj = 000005
(PID.TID 0000.0001) //       SOUTH: Tile = 000063, Process = 000000, Comm = put
(PID.TID 0000.0001) //                bi = 000015, bj = 000004
(PID.TID 0000.0001) //       NORTH: Tile = 000095, Process = 000000, Comm = put
(PID.TID 0000.0001) //                bi = 000015, bj = 000006
(PID.TID 0000.0001) // Tile number: 000080 (process no. = 000000)
(PID.TID 0000.0001) //        WEST: Tile = 000079, Process = 000000, Comm = put
(PID.TID 0000.0001) //                bi = 000015, bj = 000005
(PID.TID 0000.0001) //        EAST: Tile = 000065, Process = 000000, Comm = put
(PID.TID 0000.0001) //                bi = 000001, bj = 000005
(PID.TID 0000.0001) //       SOUTH: Tile = 000064, Process = 000000, Comm = put
(PID.TID 0000.0001) //                bi = 000016, bj = 000004
(PID.TID 0000.0001) //       NORTH: Tile = 000096, Process = 000000, Comm = put
(PID.TID 0000.0001) //                bi = 000016, bj = 000006
(PID.TID 0000.0001) // Tile number: 000081 (process no. = 000000)
(PID.TID 0000.0001) //        WEST: Tile = 000096, Process = 000000, Comm = put
(PID.TID 0000.0001) //                bi = 000016, bj = 000006
(PID.TID 0000.0001) //        EAST: Tile = 000082, Process = 000000, Comm = put
(PID.TID 0000.0001) //                bi = 000002, bj = 000006
(PID.TID 0000.0001) //       SOUTH: Tile = 000065, Process = 000000, Comm = put
(PID.TID 0000.0001) //                bi = 000001, bj = 000005
(PID.TID 0000.0001) //       NORTH: Tile = 000097, Process = 000000, Comm = put
(PID.TID 0000.0001) //                bi = 000001, bj = 000007
(PID.TID 0000.0001) // Tile number: 000082 (process no. = 000000)
(PID.TID 0000.0001) //        WEST: Tile = 000081, Process = 000000, Comm = put
(PID.TID 0000.0001) //                bi = 000001, bj = 000006
(PID.TID 0000.0001) //        EAST: Tile = 000083, Process = 000000, Comm = put
(PID.TID 0000.0001) //                bi = 000003, bj = 000006
(PID.TID 0000.0001) //       SOUTH: Tile = 000066, Process = 000000, Comm = put
(PID.TID 0000.0001) //                bi = 000002, bj = 000005
(PID.TID 0000.0001) //       NORTH: Tile = 000098, Process = 000000, Comm = put
(PID.TID 0000.0001) //                bi = 000002, bj = 000007
(PID.TID 0000.0001) // Tile number: 000083 (process no. = 000000)
(PID.TID 0000.0001) //        WEST: Tile = 000082, Process = 000000, Comm = put
(PID.TID 0000.0001) //                bi = 000002, bj = 000006
(PID.TID 0000.0001) //        EAST: Tile = 000084, Process = 000000, Comm = put
(PID.TID 0000.0001) //                bi = 000004, bj = 000006
(PID.TID 0000.0001) //       SOUTH: Tile = 000067, Process = 000000, Comm = put
(PID.TID 0000.0001) //                bi = 000003, bj = 000005
(PID.TID 0000.0001) //       NORTH: Tile = 000099, Process = 000000, Comm = put
(PID.TID 0000.0001) //                bi = 000003, bj = 000007
(PID.TID 0000.0001) // Tile number: 000084 (process no. = 000000)
(PID.TID 0000.0001) //        WEST: Tile = 000083, Process = 000000, Comm = put
(PID.TID 0000.0001) //                bi = 000003, bj = 000006
(PID.TID 0000.0001) //        EAST: Tile = 000085, Process = 000000, Comm = put
(PID.TID 0000.0001) //                bi = 000005, bj = 000006
(PID.TID 0000.0001) //       SOUTH: Tile = 000068, Process = 000000, Comm = put
(PID.TID 0000.0001) //                bi = 000004, bj = 000005
(PID.TID 0000.0001) //       NORTH: Tile = 000100, Process = 000000, Comm = put
(PID.TID 0000.0001) //                bi = 000004, bj = 000007
(PID.TID 0000.0001) // Tile number: 000085 (process no. = 000000)
(PID.TID 0000.0001) //        WEST: Tile = 000084, Process = 000000, Comm = put
(PID.TID 0000.0001) //                bi = 000004, bj = 000006
(PID.TID 0000.0001) //        EAST: Tile = 000086, Process = 000000, Comm = put
(PID.TID 0000.0001) //                bi = 000006, bj = 000006
(PID.TID 0000.0001) //       SOUTH: Tile = 000069, Process = 000000, Comm = put
(PID.TID 0000.0001) //                bi = 000005, bj = 000005
(PID.TID 0000.0001) //       NORTH: Tile = 000101, Process = 000000, Comm = put
(PID.TID 0000.0001) //                bi = 000005, bj = 000007
(PID.TID 0000.0001) // Tile number: 000086 (process no. = 000000)
(PID.TID 0000.0001) //        WEST: Tile = 000085, Process = 000000, Comm = put
(PID.TID 0000.0001) //                bi = 000005, bj = 000006
(PID.TID 0000.0001) //        EAST: Tile = 000087, Process = 000000, Comm = put
(PID.TID 0000.0001) //                bi = 000007, bj = 000006
(PID.TID 0000.0001) //       SOUTH: Tile = 000070, Process = 000000, Comm = put
(PID.TID 0000.0001) //                bi = 000006, bj = 000005
(PID.TID 0000.0001) //       NORTH: Tile = 000102, Process = 000000, Comm = put
(PID.TID 0000.0001) //                bi = 000006, bj = 000007
(PID.TID 0000.0001) // Tile number: 000087 (process no. = 000000)
(PID.TID 0000.0001) //        WEST: Tile = 000086, Process = 000000, Comm = put
(PID.TID 0000.0001) //                bi = 000006, bj = 000006
(PID.TID 0000.0001) //        EAST: Tile = 000088, Process = 000000, Comm = put
(PID.TID 0000.0001) //                bi = 000008, bj = 000006
(PID.TID 0000.0001) //       SOUTH: Tile = 000071, Process = 000000, Comm = put
(PID.TID 0000.0001) //                bi = 000007, bj = 000005
(PID.TID 0000.0001) //       NORTH: Tile = 000103, Process = 000000, Comm = put
(PID.TID 0000.0001) //                bi = 000007, bj = 000007
(PID.TID 0000.0001) // Tile number: 000088 (process no. = 000000)
(PID.TID 0000.0001) //        WEST: Tile = 000087, Process = 000000, Comm = put
(PID.TID 0000.0001) //                bi = 000007, bj = 000006
(PID.TID 0000.0001) //        EAST: Tile = 000089, Process = 000000, Comm = put
(PID.TID 0000.0001) //                bi = 000009, bj = 000006
(PID.TID 0000.0001) //       SOUTH: Tile = 000072, Process = 000000, Comm = put
(PID.TID 0000.0001) //                bi = 000008, bj = 000005
(PID.TID 0000.0001) //       NORTH: Tile = 000104, Process = 000000, Comm = put
(PID.TID 0000.0001) //                bi = 000008, bj = 000007
(PID.TID 0000.0001) // Tile number: 000089 (process no. = 000000)
(PID.TID 0000.0001) //        WEST: Tile = 000088, Process = 000000, Comm = put
(PID.TID 0000.0001) //                bi = 000008, bj = 000006
(PID.TID 0000.0001) //        EAST: Tile = 000090, Process = 000000, Comm = put
(PID.TID 0000.0001) //                bi = 000010, bj = 000006
(PID.TID 0000.0001) //       SOUTH: Tile = 000073, Process = 000000, Comm = put
(PID.TID 0000.0001) //                bi = 000009, bj = 000005
(PID.TID 0000.0001) //       NORTH: Tile = 000105, Process = 000000, Comm = put
(PID.TID 0000.0001) //                bi = 000009, bj = 000007
(PID.TID 0000.0001) // Tile number: 000090 (process no. = 000000)
(PID.TID 0000.0001) //        WEST: Tile = 000089, Process = 000000, Comm = put
(PID.TID 0000.0001) //                bi = 000009, bj = 000006
(PID.TID 0000.0001) //        EAST: Tile = 000091, Process = 000000, Comm = put
(PID.TID 0000.0001) //                bi = 000011, bj = 000006
(PID.TID 0000.0001) //       SOUTH: Tile = 000074, Process = 000000, Comm = put
(PID.TID 0000.0001) //                bi = 000010, bj = 000005
(PID.TID 0000.0001) //       NORTH: Tile = 000106, Process = 000000, Comm = put
(PID.TID 0000.0001) //                bi = 000010, bj = 000007
(PID.TID 0000.0001) // Tile number: 000091 (process no. = 000000)
(PID.TID 0000.0001) //        WEST: Tile = 000090, Process = 000000, Comm = put
(PID.TID 0000.0001) //                bi = 000010, bj = 000006
(PID.TID 0000.0001) //        EAST: Tile = 000092, Process = 000000, Comm = put
(PID.TID 0000.0001) //                bi = 000012, bj = 000006
(PID.TID 0000.0001) //       SOUTH: Tile = 000075, Process = 000000, Comm = put
(PID.TID 0000.0001) //                bi = 000011, bj = 000005
(PID.TID 0000.0001) //       NORTH: Tile = 000107, Process = 000000, Comm = put
(PID.TID 0000.0001) //                bi = 000011, bj = 000007
(PID.TID 0000.0001) // Tile number: 000092 (process no. = 000000)
(PID.TID 0000.0001) //        WEST: Tile = 000091, Process = 000000, Comm = put
(PID.TID 0000.0001) //                bi = 000011, bj = 000006
(PID.TID 0000.0001) //        EAST: Tile = 000093, Process = 000000, Comm = put
(PID.TID 0000.0001) //                bi = 000013, bj = 000006
(PID.TID 0000.0001) //       SOUTH: Tile = 000076, Process = 000000, Comm = put
(PID.TID 0000.0001) //                bi = 000012, bj = 000005
(PID.TID 0000.0001) //       NORTH: Tile = 000108, Process = 000000, Comm = put
(PID.TID 0000.0001) //                bi = 000012, bj = 000007
(PID.TID 0000.0001) // Tile number: 000093 (process no. = 000000)
(PID.TID 0000.0001) //        WEST: Tile = 000092, Process = 000000, Comm = put
(PID.TID 0000.0001) //                bi = 000012, bj = 000006
(PID.TID 0000.0001) //        EAST: Tile = 000094, Process = 000000, Comm = put
(PID.TID 0000.0001) //                bi = 000014, bj = 000006
(PID.TID 0000.0001) //       SOUTH: Tile = 000077, Process = 000000, Comm = put
(PID.TID 0000.0001) //                bi = 000013, bj = 000005
(PID.TID 0000.0001) //       NORTH: Tile = 000109, Process = 000000, Comm = put
(PID.TID 0000.0001) //                bi = 000013, bj = 000007
(PID.TID 0000.0001) // Tile number: 000094 (process no. = 000000)
(PID.TID 0000.0001) //        WEST: Tile = 000093, Process = 000000, Comm = put
(PID.TID 0000.0001) //                bi = 000013, bj = 000006
(PID.TID 0000.0001) //        EAST: Tile = 000095, Process = 000000, Comm = put
(PID.TID 0000.0001) //                bi = 000015, bj = 000006
(PID.TID 0000.0001) //       SOUTH: Tile = 000078, Process = 000000, Comm = put
(PID.TID 0000.0001) //                bi = 000014, bj = 000005
(PID.TID 0000.0001) //       NORTH: Tile = 000110, Process = 000000, Comm = put
(PID.TID 0000.0001) //                bi = 000014, bj = 000007
(PID.TID 0000.0001) // Tile number: 000095 (process no. = 000000)
(PID.TID 0000.0001) //        WEST: Tile = 000094, Process = 000000, Comm = put
(PID.TID 0000.0001) //                bi = 000014, bj = 000006
(PID.TID 0000.0001) //        EAST: Tile = 000096, Process = 000000, Comm = put
(PID.TID 0000.0001) //                bi = 000016, bj = 000006
(PID.TID 0000.0001) //       SOUTH: Tile = 000079, Process = 000000, Comm = put
(PID.TID 0000.0001) //                bi = 000015, bj = 000005
(PID.TID 0000.0001) //       NORTH: Tile = 000111, Process = 000000, Comm = put
(PID.TID 0000.0001) //                bi = 000015, bj = 000007
(PID.TID 0000.0001) // Tile number: 000096 (process no. = 000000)
(PID.TID 0000.0001) //        WEST: Tile = 000095, Process = 000000, Comm = put
(PID.TID 0000.0001) //                bi = 000015, bj = 000006
(PID.TID 0000.0001) //        EAST: Tile = 000081, Process = 000000, Comm = put
(PID.TID 0000.0001) //                bi = 000001, bj = 000006
(PID.TID 0000.0001) //       SOUTH: Tile = 000080, Process = 000000, Comm = put
(PID.TID 0000.0001) //                bi = 000016, bj = 000005
(PID.TID 0000.0001) //       NORTH: Tile = 000112, Process = 000000, Comm = put
(PID.TID 0000.0001) //                bi = 000016, bj = 000007
(PID.TID 0000.0001) // Tile number: 000097 (process no. = 000000)
(PID.TID 0000.0001) //        WEST: Tile = 000112, Process = 000000, Comm = put
(PID.TID 0000.0001) //                bi = 000016, bj = 000007
(PID.TID 0000.0001) //        EAST: Tile = 000098, Process = 000000, Comm = put
(PID.TID 0000.0001) //                bi = 000002, bj = 000007
(PID.TID 0000.0001) //       SOUTH: Tile = 000081, Process = 000000, Comm = put
(PID.TID 0000.0001) //                bi = 000001, bj = 000006
(PID.TID 0000.0001) //       NORTH: Tile = 000113, Process = 000000, Comm = put
(PID.TID 0000.0001) //                bi = 000001, bj = 000008
(PID.TID 0000.0001) // Tile number: 000098 (process no. = 000000)
(PID.TID 0000.0001) //        WEST: Tile = 000097, Process = 000000, Comm = put
(PID.TID 0000.0001) //                bi = 000001, bj = 000007
(PID.TID 0000.0001) //        EAST: Tile = 000099, Process = 000000, Comm = put
(PID.TID 0000.0001) //                bi = 000003, bj = 000007
(PID.TID 0000.0001) //       SOUTH: Tile = 000082, Process = 000000, Comm = put
(PID.TID 0000.0001) //                bi = 000002, bj = 000006
(PID.TID 0000.0001) //       NORTH: Tile = 000114, Process = 000000, Comm = put
(PID.TID 0000.0001) //                bi = 000002, bj = 000008
(PID.TID 0000.0001) // Tile number: 000099 (process no. = 000000)
(PID.TID 0000.0001) //        WEST: Tile = 000098, Process = 000000, Comm = put
(PID.TID 0000.0001) //                bi = 000002, bj = 000007
(PID.TID 0000.0001) //        EAST: Tile = 000100, Process = 000000, Comm = put
(PID.TID 0000.0001) //                bi = 000004, bj = 000007
(PID.TID 0000.0001) //       SOUTH: Tile = 000083, Process = 000000, Comm = put
(PID.TID 0000.0001) //                bi = 000003, bj = 000006
(PID.TID 0000.0001) //       NORTH: Tile = 000115, Process = 000000, Comm = put
(PID.TID 0000.0001) //                bi = 000003, bj = 000008
(PID.TID 0000.0001) // Tile number: 000100 (process no. = 000000)
(PID.TID 0000.0001) //        WEST: Tile = 000099, Process = 000000, Comm = put
(PID.TID 0000.0001) //                bi = 000003, bj = 000007
(PID.TID 0000.0001) //        EAST: Tile = 000101, Process = 000000, Comm = put
(PID.TID 0000.0001) //                bi = 000005, bj = 000007
(PID.TID 0000.0001) //       SOUTH: Tile = 000084, Process = 000000, Comm = put
(PID.TID 0000.0001) //                bi = 000004, bj = 000006
(PID.TID 0000.0001) //       NORTH: Tile = 000116, Process = 000000, Comm = put
(PID.TID 0000.0001) //                bi = 000004, bj = 000008
(PID.TID 0000.0001) // Tile number: 000101 (process no. = 000000)
(PID.TID 0000.0001) //        WEST: Tile = 000100, Process = 000000, Comm = put
(PID.TID 0000.0001) //                bi = 000004, bj = 000007
(PID.TID 0000.0001) //        EAST: Tile = 000102, Process = 000000, Comm = put
(PID.TID 0000.0001) //                bi = 000006, bj = 000007
(PID.TID 0000.0001) //       SOUTH: Tile = 000085, Process = 000000, Comm = put
(PID.TID 0000.0001) //                bi = 000005, bj = 000006
(PID.TID 0000.0001) //       NORTH: Tile = 000117, Process = 000000, Comm = put
(PID.TID 0000.0001) //                bi = 000005, bj = 000008
(PID.TID 0000.0001) // Tile number: 000102 (process no. = 000000)
(PID.TID 0000.0001) //        WEST: Tile = 000101, Process = 000000, Comm = put
(PID.TID 0000.0001) //                bi = 000005, bj = 000007
(PID.TID 0000.0001) //        EAST: Tile = 000103, Process = 000000, Comm = put
(PID.TID 0000.0001) //                bi = 000007, bj = 000007
(PID.TID 0000.0001) //       SOUTH: Tile = 000086, Process = 000000, Comm = put
(PID.TID 0000.0001) //                bi = 000006, bj = 000006
(PID.TID 0000.0001) //       NORTH: Tile = 000118, Process = 000000, Comm = put
(PID.TID 0000.0001) //                bi = 000006, bj = 000008
(PID.TID 0000.0001) // Tile number: 000103 (process no. = 000000)
(PID.TID 0000.0001) //        WEST: Tile = 000102, Process = 000000, Comm = put
(PID.TID 0000.0001) //                bi = 000006, bj = 000007
(PID.TID 0000.0001) //        EAST: Tile = 000104, Process = 000000, Comm = put
(PID.TID 0000.0001) //                bi = 000008, bj = 000007
(PID.TID 0000.0001) //       SOUTH: Tile = 000087, Process = 000000, Comm = put
(PID.TID 0000.0001) //                bi = 000007, bj = 000006
(PID.TID 0000.0001) //       NORTH: Tile = 000119, Process = 000000, Comm = put
(PID.TID 0000.0001) //                bi = 000007, bj = 000008
(PID.TID 0000.0001) // Tile number: 000104 (process no. = 000000)
(PID.TID 0000.0001) //        WEST: Tile = 000103, Process = 000000, Comm = put
(PID.TID 0000.0001) //                bi = 000007, bj = 000007
(PID.TID 0000.0001) //        EAST: Tile = 000105, Process = 000000, Comm = put
(PID.TID 0000.0001) //                bi = 000009, bj = 000007
(PID.TID 0000.0001) //       SOUTH: Tile = 000088, Process = 000000, Comm = put
(PID.TID 0000.0001) //                bi = 000008, bj = 000006
(PID.TID 0000.0001) //       NORTH: Tile = 000120, Process = 000000, Comm = put
(PID.TID 0000.0001) //                bi = 000008, bj = 000008
(PID.TID 0000.0001) // Tile number: 000105 (process no. = 000000)
(PID.TID 0000.0001) //        WEST: Tile = 000104, Process = 000000, Comm = put
(PID.TID 0000.0001) //                bi = 000008, bj = 000007
(PID.TID 0000.0001) //        EAST: Tile = 000106, Process = 000000, Comm = put
(PID.TID 0000.0001) //                bi = 000010, bj = 000007
(PID.TID 0000.0001) //       SOUTH: Tile = 000089, Process = 000000, Comm = put
(PID.TID 0000.0001) //                bi = 000009, bj = 000006
(PID.TID 0000.0001) //       NORTH: Tile = 000121, Process = 000000, Comm = put
(PID.TID 0000.0001) //                bi = 000009, bj = 000008
(PID.TID 0000.0001) // Tile number: 000106 (process no. = 000000)
(PID.TID 0000.0001) //        WEST: Tile = 000105, Process = 000000, Comm = put
(PID.TID 0000.0001) //                bi = 000009, bj = 000007
(PID.TID 0000.0001) //        EAST: Tile = 000107, Process = 000000, Comm = put
(PID.TID 0000.0001) //                bi = 000011, bj = 000007
(PID.TID 0000.0001) //       SOUTH: Tile = 000090, Process = 000000, Comm = put
(PID.TID 0000.0001) //                bi = 000010, bj = 000006
(PID.TID 0000.0001) //       NORTH: Tile = 000122, Process = 000000, Comm = put
(PID.TID 0000.0001) //                bi = 000010, bj = 000008
(PID.TID 0000.0001) // Tile number: 000107 (process no. = 000000)
(PID.TID 0000.0001) //        WEST: Tile = 000106, Process = 000000, Comm = put
(PID.TID 0000.0001) //                bi = 000010, bj = 000007
(PID.TID 0000.0001) //        EAST: Tile = 000108, Process = 000000, Comm = put
(PID.TID 0000.0001) //                bi = 000012, bj = 000007
(PID.TID 0000.0001) //       SOUTH: Tile = 000091, Process = 000000, Comm = put
(PID.TID 0000.0001) //                bi = 000011, bj = 000006
(PID.TID 0000.0001) //       NORTH: Tile = 000123, Process = 000000, Comm = put
(PID.TID 0000.0001) //                bi = 000011, bj = 000008
(PID.TID 0000.0001) // Tile number: 000108 (process no. = 000000)
(PID.TID 0000.0001) //        WEST: Tile = 000107, Process = 000000, Comm = put
(PID.TID 0000.0001) //                bi = 000011, bj = 000007
(PID.TID 0000.0001) //        EAST: Tile = 000109, Process = 000000, Comm = put
(PID.TID 0000.0001) //                bi = 000013, bj = 000007
(PID.TID 0000.0001) //       SOUTH: Tile = 000092, Process = 000000, Comm = put
(PID.TID 0000.0001) //                bi = 000012, bj = 000006
(PID.TID 0000.0001) //       NORTH: Tile = 000124, Process = 000000, Comm = put
(PID.TID 0000.0001) //                bi = 000012, bj = 000008
(PID.TID 0000.0001) // Tile number: 000109 (process no. = 000000)
(PID.TID 0000.0001) //        WEST: Tile = 000108, Process = 000000, Comm = put
(PID.TID 0000.0001) //                bi = 000012, bj = 000007
(PID.TID 0000.0001) //        EAST: Tile = 000110, Process = 000000, Comm = put
(PID.TID 0000.0001) //                bi = 000014, bj = 000007
(PID.TID 0000.0001) //       SOUTH: Tile = 000093, Process = 000000, Comm = put
(PID.TID 0000.0001) //                bi = 000013, bj = 000006
(PID.TID 0000.0001) //       NORTH: Tile = 000125, Process = 000000, Comm = put
(PID.TID 0000.0001) //                bi = 000013, bj = 000008
(PID.TID 0000.0001) // Tile number: 000110 (process no. = 000000)
(PID.TID 0000.0001) //        WEST: Tile = 000109, Process = 000000, Comm = put
(PID.TID 0000.0001) //                bi = 000013, bj = 000007
(PID.TID 0000.0001) //        EAST: Tile = 000111, Process = 000000, Comm = put
(PID.TID 0000.0001) //                bi = 000015, bj = 000007
(PID.TID 0000.0001) //       SOUTH: Tile = 000094, Process = 000000, Comm = put
(PID.TID 0000.0001) //                bi = 000014, bj = 000006
(PID.TID 0000.0001) //       NORTH: Tile = 000126, Process = 000000, Comm = put
(PID.TID 0000.0001) //                bi = 000014, bj = 000008
(PID.TID 0000.0001) // Tile number: 000111 (process no. = 000000)
(PID.TID 0000.0001) //        WEST: Tile = 000110, Process = 000000, Comm = put
(PID.TID 0000.0001) //                bi = 000014, bj = 000007
(PID.TID 0000.0001) //        EAST: Tile = 000112, Process = 000000, Comm = put
(PID.TID 0000.0001) //                bi = 000016, bj = 000007
(PID.TID 0000.0001) //       SOUTH: Tile = 000095, Process = 000000, Comm = put
(PID.TID 0000.0001) //                bi = 000015, bj = 000006
(PID.TID 0000.0001) //       NORTH: Tile = 000127, Process = 000000, Comm = put
(PID.TID 0000.0001) //                bi = 000015, bj = 000008
(PID.TID 0000.0001) // Tile number: 000112 (process no. = 000000)
(PID.TID 0000.0001) //        WEST: Tile = 000111, Process = 000000, Comm = put
(PID.TID 0000.0001) //                bi = 000015, bj = 000007
(PID.TID 0000.0001) //        EAST: Tile = 000097, Process = 000000, Comm = put
(PID.TID 0000.0001) //                bi = 000001, bj = 000007
(PID.TID 0000.0001) //       SOUTH: Tile = 000096, Process = 000000, Comm = put
(PID.TID 0000.0001) //                bi = 000016, bj = 000006
(PID.TID 0000.0001) //       NORTH: Tile = 000128, Process = 000000, Comm = put
(PID.TID 0000.0001) //                bi = 000016, bj = 000008
(PID.TID 0000.0001) // Tile number: 000113 (process no. = 000000)
(PID.TID 0000.0001) //        WEST: Tile = 000128, Process = 000000, Comm = put
(PID.TID 0000.0001) //                bi = 000016, bj = 000008
(PID.TID 0000.0001) //        EAST: Tile = 000114, Process = 000000, Comm = put
(PID.TID 0000.0001) //                bi = 000002, bj = 000008
(PID.TID 0000.0001) //       SOUTH: Tile = 000097, Process = 000000, Comm = put
(PID.TID 0000.0001) //                bi = 000001, bj = 000007
(PID.TID 0000.0001) //       NORTH: Tile = 000129, Process = 000000, Comm = put
(PID.TID 0000.0001) //                bi = 000001, bj = 000009
(PID.TID 0000.0001) // Tile number: 000114 (process no. = 000000)
(PID.TID 0000.0001) //        WEST: Tile = 000113, Process = 000000, Comm = put
(PID.TID 0000.0001) //                bi = 000001, bj = 000008
(PID.TID 0000.0001) //        EAST: Tile = 000115, Process = 000000, Comm = put
(PID.TID 0000.0001) //                bi = 000003, bj = 000008
(PID.TID 0000.0001) //       SOUTH: Tile = 000098, Process = 000000, Comm = put
(PID.TID 0000.0001) //                bi = 000002, bj = 000007
(PID.TID 0000.0001) //       NORTH: Tile = 000130, Process = 000000, Comm = put
(PID.TID 0000.0001) //                bi = 000002, bj = 000009
(PID.TID 0000.0001) // Tile number: 000115 (process no. = 000000)
(PID.TID 0000.0001) //        WEST: Tile = 000114, Process = 000000, Comm = put
(PID.TID 0000.0001) //                bi = 000002, bj = 000008
(PID.TID 0000.0001) //        EAST: Tile = 000116, Process = 000000, Comm = put
(PID.TID 0000.0001) //                bi = 000004, bj = 000008
(PID.TID 0000.0001) //       SOUTH: Tile = 000099, Process = 000000, Comm = put
(PID.TID 0000.0001) //                bi = 000003, bj = 000007
(PID.TID 0000.0001) //       NORTH: Tile = 000131, Process = 000000, Comm = put
(PID.TID 0000.0001) //                bi = 000003, bj = 000009
(PID.TID 0000.0001) // Tile number: 000116 (process no. = 000000)
(PID.TID 0000.0001) //        WEST: Tile = 000115, Process = 000000, Comm = put
(PID.TID 0000.0001) //                bi = 000003, bj = 000008
(PID.TID 0000.0001) //        EAST: Tile = 000117, Process = 000000, Comm = put
(PID.TID 0000.0001) //                bi = 000005, bj = 000008
(PID.TID 0000.0001) //       SOUTH: Tile = 000100, Process = 000000, Comm = put
(PID.TID 0000.0001) //                bi = 000004, bj = 000007
(PID.TID 0000.0001) //       NORTH: Tile = 000132, Process = 000000, Comm = put
(PID.TID 0000.0001) //                bi = 000004, bj = 000009
(PID.TID 0000.0001) // Tile number: 000117 (process no. = 000000)
(PID.TID 0000.0001) //        WEST: Tile = 000116, Process = 000000, Comm = put
(PID.TID 0000.0001) //                bi = 000004, bj = 000008
(PID.TID 0000.0001) //        EAST: Tile = 000118, Process = 000000, Comm = put
(PID.TID 0000.0001) //                bi = 000006, bj = 000008
(PID.TID 0000.0001) //       SOUTH: Tile = 000101, Process = 000000, Comm = put
(PID.TID 0000.0001) //                bi = 000005, bj = 000007
(PID.TID 0000.0001) //       NORTH: Tile = 000133, Process = 000000, Comm = put
(PID.TID 0000.0001) //                bi = 000005, bj = 000009
(PID.TID 0000.0001) // Tile number: 000118 (process no. = 000000)
(PID.TID 0000.0001) //        WEST: Tile = 000117, Process = 000000, Comm = put
(PID.TID 0000.0001) //                bi = 000005, bj = 000008
(PID.TID 0000.0001) //        EAST: Tile = 000119, Process = 000000, Comm = put
(PID.TID 0000.0001) //                bi = 000007, bj = 000008
(PID.TID 0000.0001) //       SOUTH: Tile = 000102, Process = 000000, Comm = put
(PID.TID 0000.0001) //                bi = 000006, bj = 000007
(PID.TID 0000.0001) //       NORTH: Tile = 000134, Process = 000000, Comm = put
(PID.TID 0000.0001) //                bi = 000006, bj = 000009
(PID.TID 0000.0001) // Tile number: 000119 (process no. = 000000)
(PID.TID 0000.0001) //        WEST: Tile = 000118, Process = 000000, Comm = put
(PID.TID 0000.0001) //                bi = 000006, bj = 000008
(PID.TID 0000.0001) //        EAST: Tile = 000120, Process = 000000, Comm = put
(PID.TID 0000.0001) //                bi = 000008, bj = 000008
(PID.TID 0000.0001) //       SOUTH: Tile = 000103, Process = 000000, Comm = put
(PID.TID 0000.0001) //                bi = 000007, bj = 000007
(PID.TID 0000.0001) //       NORTH: Tile = 000135, Process = 000000, Comm = put
(PID.TID 0000.0001) //                bi = 000007, bj = 000009
(PID.TID 0000.0001) // Tile number: 000120 (process no. = 000000)
(PID.TID 0000.0001) //        WEST: Tile = 000119, Process = 000000, Comm = put
(PID.TID 0000.0001) //                bi = 000007, bj = 000008
(PID.TID 0000.0001) //        EAST: Tile = 000121, Process = 000000, Comm = put
(PID.TID 0000.0001) //                bi = 000009, bj = 000008
(PID.TID 0000.0001) //       SOUTH: Tile = 000104, Process = 000000, Comm = put
(PID.TID 0000.0001) //                bi = 000008, bj = 000007
(PID.TID 0000.0001) //       NORTH: Tile = 000136, Process = 000000, Comm = put
(PID.TID 0000.0001) //                bi = 000008, bj = 000009
(PID.TID 0000.0001) // Tile number: 000121 (process no. = 000000)
(PID.TID 0000.0001) //        WEST: Tile = 000120, Process = 000000, Comm = put
(PID.TID 0000.0001) //                bi = 000008, bj = 000008
(PID.TID 0000.0001) //        EAST: Tile = 000122, Process = 000000, Comm = put
(PID.TID 0000.0001) //                bi = 000010, bj = 000008
(PID.TID 0000.0001) //       SOUTH: Tile = 000105, Process = 000000, Comm = put
(PID.TID 0000.0001) //                bi = 000009, bj = 000007
(PID.TID 0000.0001) //       NORTH: Tile = 000137, Process = 000000, Comm = put
(PID.TID 0000.0001) //                bi = 000009, bj = 000009
(PID.TID 0000.0001) // Tile number: 000122 (process no. = 000000)
(PID.TID 0000.0001) //        WEST: Tile = 000121, Process = 000000, Comm = put
(PID.TID 0000.0001) //                bi = 000009, bj = 000008
(PID.TID 0000.0001) //        EAST: Tile = 000123, Process = 000000, Comm = put
(PID.TID 0000.0001) //                bi = 000011, bj = 000008
(PID.TID 0000.0001) //       SOUTH: Tile = 000106, Process = 000000, Comm = put
(PID.TID 0000.0001) //                bi = 000010, bj = 000007
(PID.TID 0000.0001) //       NORTH: Tile = 000138, Process = 000000, Comm = put
(PID.TID 0000.0001) //                bi = 000010, bj = 000009
(PID.TID 0000.0001) // Tile number: 000123 (process no. = 000000)
(PID.TID 0000.0001) //        WEST: Tile = 000122, Process = 000000, Comm = put
(PID.TID 0000.0001) //                bi = 000010, bj = 000008
(PID.TID 0000.0001) //        EAST: Tile = 000124, Process = 000000, Comm = put
(PID.TID 0000.0001) //                bi = 000012, bj = 000008
(PID.TID 0000.0001) //       SOUTH: Tile = 000107, Process = 000000, Comm = put
(PID.TID 0000.0001) //                bi = 000011, bj = 000007
(PID.TID 0000.0001) //       NORTH: Tile = 000139, Process = 000000, Comm = put
(PID.TID 0000.0001) //                bi = 000011, bj = 000009
(PID.TID 0000.0001) // Tile number: 000124 (process no. = 000000)
(PID.TID 0000.0001) //        WEST: Tile = 000123, Process = 000000, Comm = put
(PID.TID 0000.0001) //                bi = 000011, bj = 000008
(PID.TID 0000.0001) //        EAST: Tile = 000125, Process = 000000, Comm = put
(PID.TID 0000.0001) //                bi = 000013, bj = 000008
(PID.TID 0000.0001) //       SOUTH: Tile = 000108, Process = 000000, Comm = put
(PID.TID 0000.0001) //                bi = 000012, bj = 000007
(PID.TID 0000.0001) //       NORTH: Tile = 000140, Process = 000000, Comm = put
(PID.TID 0000.0001) //                bi = 000012, bj = 000009
(PID.TID 0000.0001) // Tile number: 000125 (process no. = 000000)
(PID.TID 0000.0001) //        WEST: Tile = 000124, Process = 000000, Comm = put
(PID.TID 0000.0001) //                bi = 000012, bj = 000008
(PID.TID 0000.0001) //        EAST: Tile = 000126, Process = 000000, Comm = put
(PID.TID 0000.0001) //                bi = 000014, bj = 000008
(PID.TID 0000.0001) //       SOUTH: Tile = 000109, Process = 000000, Comm = put
(PID.TID 0000.0001) //                bi = 000013, bj = 000007
(PID.TID 0000.0001) //       NORTH: Tile = 000141, Process = 000000, Comm = put
(PID.TID 0000.0001) //                bi = 000013, bj = 000009
(PID.TID 0000.0001) // Tile number: 000126 (process no. = 000000)
(PID.TID 0000.0001) //        WEST: Tile = 000125, Process = 000000, Comm = put
(PID.TID 0000.0001) //                bi = 000013, bj = 000008
(PID.TID 0000.0001) //        EAST: Tile = 000127, Process = 000000, Comm = put
(PID.TID 0000.0001) //                bi = 000015, bj = 000008
(PID.TID 0000.0001) //       SOUTH: Tile = 000110, Process = 000000, Comm = put
(PID.TID 0000.0001) //                bi = 000014, bj = 000007
(PID.TID 0000.0001) //       NORTH: Tile = 000142, Process = 000000, Comm = put
(PID.TID 0000.0001) //                bi = 000014, bj = 000009
(PID.TID 0000.0001) // Tile number: 000127 (process no. = 000000)
(PID.TID 0000.0001) //        WEST: Tile = 000126, Process = 000000, Comm = put
(PID.TID 0000.0001) //                bi = 000014, bj = 000008
(PID.TID 0000.0001) //        EAST: Tile = 000128, Process = 000000, Comm = put
(PID.TID 0000.0001) //                bi = 000016, bj = 000008
(PID.TID 0000.0001) //       SOUTH: Tile = 000111, Process = 000000, Comm = put
(PID.TID 0000.0001) //                bi = 000015, bj = 000007
(PID.TID 0000.0001) //       NORTH: Tile = 000143, Process = 000000, Comm = put
(PID.TID 0000.0001) //                bi = 000015, bj = 000009
(PID.TID 0000.0001) // Tile number: 000128 (process no. = 000000)
(PID.TID 0000.0001) //        WEST: Tile = 000127, Process = 000000, Comm = put
(PID.TID 0000.0001) //                bi = 000015, bj = 000008
(PID.TID 0000.0001) //        EAST: Tile = 000113, Process = 000000, Comm = put
(PID.TID 0000.0001) //                bi = 000001, bj = 000008
(PID.TID 0000.0001) //       SOUTH: Tile = 000112, Process = 000000, Comm = put
(PID.TID 0000.0001) //                bi = 000016, bj = 000007
(PID.TID 0000.0001) //       NORTH: Tile = 000144, Process = 000000, Comm = put
(PID.TID 0000.0001) //                bi = 000016, bj = 000009
(PID.TID 0000.0001) // Tile number: 000129 (process no. = 000000)
(PID.TID 0000.0001) //        WEST: Tile = 000144, Process = 000000, Comm = put
(PID.TID 0000.0001) //                bi = 000016, bj = 000009
(PID.TID 0000.0001) //        EAST: Tile = 000130, Process = 000000, Comm = put
(PID.TID 0000.0001) //                bi = 000002, bj = 000009
(PID.TID 0000.0001) //       SOUTH: Tile = 000113, Process = 000000, Comm = put
(PID.TID 0000.0001) //                bi = 000001, bj = 000008
(PID.TID 0000.0001) //       NORTH: Tile = 000145, Process = 000000, Comm = put
(PID.TID 0000.0001) //                bi = 000001, bj = 000010
(PID.TID 0000.0001) // Tile number: 000130 (process no. = 000000)
(PID.TID 0000.0001) //        WEST: Tile = 000129, Process = 000000, Comm = put
(PID.TID 0000.0001) //                bi = 000001, bj = 000009
(PID.TID 0000.0001) //        EAST: Tile = 000131, Process = 000000, Comm = put
(PID.TID 0000.0001) //                bi = 000003, bj = 000009
(PID.TID 0000.0001) //       SOUTH: Tile = 000114, Process = 000000, Comm = put
(PID.TID 0000.0001) //                bi = 000002, bj = 000008
(PID.TID 0000.0001) //       NORTH: Tile = 000146, Process = 000000, Comm = put
(PID.TID 0000.0001) //                bi = 000002, bj = 000010
(PID.TID 0000.0001) // Tile number: 000131 (process no. = 000000)
(PID.TID 0000.0001) //        WEST: Tile = 000130, Process = 000000, Comm = put
(PID.TID 0000.0001) //                bi = 000002, bj = 000009
(PID.TID 0000.0001) //        EAST: Tile = 000132, Process = 000000, Comm = put
(PID.TID 0000.0001) //                bi = 000004, bj = 000009
(PID.TID 0000.0001) //       SOUTH: Tile = 000115, Process = 000000, Comm = put
(PID.TID 0000.0001) //                bi = 000003, bj = 000008
(PID.TID 0000.0001) //       NORTH: Tile = 000147, Process = 000000, Comm = put
(PID.TID 0000.0001) //                bi = 000003, bj = 000010
(PID.TID 0000.0001) // Tile number: 000132 (process no. = 000000)
(PID.TID 0000.0001) //        WEST: Tile = 000131, Process = 000000, Comm = put
(PID.TID 0000.0001) //                bi = 000003, bj = 000009
(PID.TID 0000.0001) //        EAST: Tile = 000133, Process = 000000, Comm = put
(PID.TID 0000.0001) //                bi = 000005, bj = 000009
(PID.TID 0000.0001) //       SOUTH: Tile = 000116, Process = 000000, Comm = put
(PID.TID 0000.0001) //                bi = 000004, bj = 000008
(PID.TID 0000.0001) //       NORTH: Tile = 000148, Process = 000000, Comm = put
(PID.TID 0000.0001) //                bi = 000004, bj = 000010
(PID.TID 0000.0001) // Tile number: 000133 (process no. = 000000)
(PID.TID 0000.0001) //        WEST: Tile = 000132, Process = 000000, Comm = put
(PID.TID 0000.0001) //                bi = 000004, bj = 000009
(PID.TID 0000.0001) //        EAST: Tile = 000134, Process = 000000, Comm = put
(PID.TID 0000.0001) //                bi = 000006, bj = 000009
(PID.TID 0000.0001) //       SOUTH: Tile = 000117, Process = 000000, Comm = put
(PID.TID 0000.0001) //                bi = 000005, bj = 000008
(PID.TID 0000.0001) //       NORTH: Tile = 000149, Process = 000000, Comm = put
(PID.TID 0000.0001) //                bi = 000005, bj = 000010
(PID.TID 0000.0001) // Tile number: 000134 (process no. = 000000)
(PID.TID 0000.0001) //        WEST: Tile = 000133, Process = 000000, Comm = put
(PID.TID 0000.0001) //                bi = 000005, bj = 000009
(PID.TID 0000.0001) //        EAST: Tile = 000135, Process = 000000, Comm = put
(PID.TID 0000.0001) //                bi = 000007, bj = 000009
(PID.TID 0000.0001) //       SOUTH: Tile = 000118, Process = 000000, Comm = put
(PID.TID 0000.0001) //                bi = 000006, bj = 000008
(PID.TID 0000.0001) //       NORTH: Tile = 000150, Process = 000000, Comm = put
(PID.TID 0000.0001) //                bi = 000006, bj = 000010
(PID.TID 0000.0001) // Tile number: 000135 (process no. = 000000)
(PID.TID 0000.0001) //        WEST: Tile = 000134, Process = 000000, Comm = put
(PID.TID 0000.0001) //                bi = 000006, bj = 000009
(PID.TID 0000.0001) //        EAST: Tile = 000136, Process = 000000, Comm = put
(PID.TID 0000.0001) //                bi = 000008, bj = 000009
(PID.TID 0000.0001) //       SOUTH: Tile = 000119, Process = 000000, Comm = put
(PID.TID 0000.0001) //                bi = 000007, bj = 000008
(PID.TID 0000.0001) //       NORTH: Tile = 000151, Process = 000000, Comm = put
(PID.TID 0000.0001) //                bi = 000007, bj = 000010
(PID.TID 0000.0001) // Tile number: 000136 (process no. = 000000)
(PID.TID 0000.0001) //        WEST: Tile = 000135, Process = 000000, Comm = put
(PID.TID 0000.0001) //                bi = 000007, bj = 000009
(PID.TID 0000.0001) //        EAST: Tile = 000137, Process = 000000, Comm = put
(PID.TID 0000.0001) //                bi = 000009, bj = 000009
(PID.TID 0000.0001) //       SOUTH: Tile = 000120, Process = 000000, Comm = put
(PID.TID 0000.0001) //                bi = 000008, bj = 000008
(PID.TID 0000.0001) //       NORTH: Tile = 000152, Process = 000000, Comm = put
(PID.TID 0000.0001) //                bi = 000008, bj = 000010
(PID.TID 0000.0001) // Tile number: 000137 (process no. = 000000)
(PID.TID 0000.0001) //        WEST: Tile = 000136, Process = 000000, Comm = put
(PID.TID 0000.0001) //                bi = 000008, bj = 000009
(PID.TID 0000.0001) //        EAST: Tile = 000138, Process = 000000, Comm = put
(PID.TID 0000.0001) //                bi = 000010, bj = 000009
(PID.TID 0000.0001) //       SOUTH: Tile = 000121, Process = 000000, Comm = put
(PID.TID 0000.0001) //                bi = 000009, bj = 000008
(PID.TID 0000.0001) //       NORTH: Tile = 000153, Process = 000000, Comm = put
(PID.TID 0000.0001) //                bi = 000009, bj = 000010
(PID.TID 0000.0001) // Tile number: 000138 (process no. = 000000)
(PID.TID 0000.0001) //        WEST: Tile = 000137, Process = 000000, Comm = put
(PID.TID 0000.0001) //                bi = 000009, bj = 000009
(PID.TID 0000.0001) //        EAST: Tile = 000139, Process = 000000, Comm = put
(PID.TID 0000.0001) //                bi = 000011, bj = 000009
(PID.TID 0000.0001) //       SOUTH: Tile = 000122, Process = 000000, Comm = put
(PID.TID 0000.0001) //                bi = 000010, bj = 000008
(PID.TID 0000.0001) //       NORTH: Tile = 000154, Process = 000000, Comm = put
(PID.TID 0000.0001) //                bi = 000010, bj = 000010
(PID.TID 0000.0001) // Tile number: 000139 (process no. = 000000)
(PID.TID 0000.0001) //        WEST: Tile = 000138, Process = 000000, Comm = put
(PID.TID 0000.0001) //                bi = 000010, bj = 000009
(PID.TID 0000.0001) //        EAST: Tile = 000140, Process = 000000, Comm = put
(PID.TID 0000.0001) //                bi = 000012, bj = 000009
(PID.TID 0000.0001) //       SOUTH: Tile = 000123, Process = 000000, Comm = put
(PID.TID 0000.0001) //                bi = 000011, bj = 000008
(PID.TID 0000.0001) //       NORTH: Tile = 000155, Process = 000000, Comm = put
(PID.TID 0000.0001) //                bi = 000011, bj = 000010
(PID.TID 0000.0001) // Tile number: 000140 (process no. = 000000)
(PID.TID 0000.0001) //        WEST: Tile = 000139, Process = 000000, Comm = put
(PID.TID 0000.0001) //                bi = 000011, bj = 000009
(PID.TID 0000.0001) //        EAST: Tile = 000141, Process = 000000, Comm = put
(PID.TID 0000.0001) //                bi = 000013, bj = 000009
(PID.TID 0000.0001) //       SOUTH: Tile = 000124, Process = 000000, Comm = put
(PID.TID 0000.0001) //                bi = 000012, bj = 000008
(PID.TID 0000.0001) //       NORTH: Tile = 000156, Process = 000000, Comm = put
(PID.TID 0000.0001) //                bi = 000012, bj = 000010
(PID.TID 0000.0001) // Tile number: 000141 (process no. = 000000)
(PID.TID 0000.0001) //        WEST: Tile = 000140, Process = 000000, Comm = put
(PID.TID 0000.0001) //                bi = 000012, bj = 000009
(PID.TID 0000.0001) //        EAST: Tile = 000142, Process = 000000, Comm = put
(PID.TID 0000.0001) //                bi = 000014, bj = 000009
(PID.TID 0000.0001) //       SOUTH: Tile = 000125, Process = 000000, Comm = put
(PID.TID 0000.0001) //                bi = 000013, bj = 000008
(PID.TID 0000.0001) //       NORTH: Tile = 000157, Process = 000000, Comm = put
(PID.TID 0000.0001) //                bi = 000013, bj = 000010
(PID.TID 0000.0001) // Tile number: 000142 (process no. = 000000)
(PID.TID 0000.0001) //        WEST: Tile = 000141, Process = 000000, Comm = put
(PID.TID 0000.0001) //                bi = 000013, bj = 000009
(PID.TID 0000.0001) //        EAST: Tile = 000143, Process = 000000, Comm = put
(PID.TID 0000.0001) //                bi = 000015, bj = 000009
(PID.TID 0000.0001) //       SOUTH: Tile = 000126, Process = 000000, Comm = put
(PID.TID 0000.0001) //                bi = 000014, bj = 000008
(PID.TID 0000.0001) //       NORTH: Tile = 000158, Process = 000000, Comm = put
(PID.TID 0000.0001) //                bi = 000014, bj = 000010
(PID.TID 0000.0001) // Tile number: 000143 (process no. = 000000)
(PID.TID 0000.0001) //        WEST: Tile = 000142, Process = 000000, Comm = put
(PID.TID 0000.0001) //                bi = 000014, bj = 000009
(PID.TID 0000.0001) //        EAST: Tile = 000144, Process = 000000, Comm = put
(PID.TID 0000.0001) //                bi = 000016, bj = 000009
(PID.TID 0000.0001) //       SOUTH: Tile = 000127, Process = 000000, Comm = put
(PID.TID 0000.0001) //                bi = 000015, bj = 000008
(PID.TID 0000.0001) //       NORTH: Tile = 000159, Process = 000000, Comm = put
(PID.TID 0000.0001) //                bi = 000015, bj = 000010
(PID.TID 0000.0001) // Tile number: 000144 (process no. = 000000)
(PID.TID 0000.0001) //        WEST: Tile = 000143, Process = 000000, Comm = put
(PID.TID 0000.0001) //                bi = 000015, bj = 000009
(PID.TID 0000.0001) //        EAST: Tile = 000129, Process = 000000, Comm = put
(PID.TID 0000.0001) //                bi = 000001, bj = 000009
(PID.TID 0000.0001) //       SOUTH: Tile = 000128, Process = 000000, Comm = put
(PID.TID 0000.0001) //                bi = 000016, bj = 000008
(PID.TID 0000.0001) //       NORTH: Tile = 000160, Process = 000000, Comm = put
(PID.TID 0000.0001) //                bi = 000016, bj = 000010
(PID.TID 0000.0001) // Tile number: 000145 (process no. = 000000)
(PID.TID 0000.0001) //        WEST: Tile = 000160, Process = 000000, Comm = put
(PID.TID 0000.0001) //                bi = 000016, bj = 000010
(PID.TID 0000.0001) //        EAST: Tile = 000146, Process = 000000, Comm = put
(PID.TID 0000.0001) //                bi = 000002, bj = 000010
(PID.TID 0000.0001) //       SOUTH: Tile = 000129, Process = 000000, Comm = put
(PID.TID 0000.0001) //                bi = 000001, bj = 000009
(PID.TID 0000.0001) //       NORTH: Tile = 000161, Process = 000000, Comm = put
(PID.TID 0000.0001) //                bi = 000001, bj = 000011
(PID.TID 0000.0001) // Tile number: 000146 (process no. = 000000)
(PID.TID 0000.0001) //        WEST: Tile = 000145, Process = 000000, Comm = put
(PID.TID 0000.0001) //                bi = 000001, bj = 000010
(PID.TID 0000.0001) //        EAST: Tile = 000147, Process = 000000, Comm = put
(PID.TID 0000.0001) //                bi = 000003, bj = 000010
(PID.TID 0000.0001) //       SOUTH: Tile = 000130, Process = 000000, Comm = put
(PID.TID 0000.0001) //                bi = 000002, bj = 000009
(PID.TID 0000.0001) //       NORTH: Tile = 000162, Process = 000000, Comm = put
(PID.TID 0000.0001) //                bi = 000002, bj = 000011
(PID.TID 0000.0001) // Tile number: 000147 (process no. = 000000)
(PID.TID 0000.0001) //        WEST: Tile = 000146, Process = 000000, Comm = put
(PID.TID 0000.0001) //                bi = 000002, bj = 000010
(PID.TID 0000.0001) //        EAST: Tile = 000148, Process = 000000, Comm = put
(PID.TID 0000.0001) //                bi = 000004, bj = 000010
(PID.TID 0000.0001) //       SOUTH: Tile = 000131, Process = 000000, Comm = put
(PID.TID 0000.0001) //                bi = 000003, bj = 000009
(PID.TID 0000.0001) //       NORTH: Tile = 000163, Process = 000000, Comm = put
(PID.TID 0000.0001) //                bi = 000003, bj = 000011
(PID.TID 0000.0001) // Tile number: 000148 (process no. = 000000)
(PID.TID 0000.0001) //        WEST: Tile = 000147, Process = 000000, Comm = put
(PID.TID 0000.0001) //                bi = 000003, bj = 000010
(PID.TID 0000.0001) //        EAST: Tile = 000149, Process = 000000, Comm = put
(PID.TID 0000.0001) //                bi = 000005, bj = 000010
(PID.TID 0000.0001) //       SOUTH: Tile = 000132, Process = 000000, Comm = put
(PID.TID 0000.0001) //                bi = 000004, bj = 000009
(PID.TID 0000.0001) //       NORTH: Tile = 000164, Process = 000000, Comm = put
(PID.TID 0000.0001) //                bi = 000004, bj = 000011
(PID.TID 0000.0001) // Tile number: 000149 (process no. = 000000)
(PID.TID 0000.0001) //        WEST: Tile = 000148, Process = 000000, Comm = put
(PID.TID 0000.0001) //                bi = 000004, bj = 000010
(PID.TID 0000.0001) //        EAST: Tile = 000150, Process = 000000, Comm = put
(PID.TID 0000.0001) //                bi = 000006, bj = 000010
(PID.TID 0000.0001) //       SOUTH: Tile = 000133, Process = 000000, Comm = put
(PID.TID 0000.0001) //                bi = 000005, bj = 000009
(PID.TID 0000.0001) //       NORTH: Tile = 000165, Process = 000000, Comm = put
(PID.TID 0000.0001) //                bi = 000005, bj = 000011
(PID.TID 0000.0001) // Tile number: 000150 (process no. = 000000)
(PID.TID 0000.0001) //        WEST: Tile = 000149, Process = 000000, Comm = put
(PID.TID 0000.0001) //                bi = 000005, bj = 000010
(PID.TID 0000.0001) //        EAST: Tile = 000151, Process = 000000, Comm = put
(PID.TID 0000.0001) //                bi = 000007, bj = 000010
(PID.TID 0000.0001) //       SOUTH: Tile = 000134, Process = 000000, Comm = put
(PID.TID 0000.0001) //                bi = 000006, bj = 000009
(PID.TID 0000.0001) //       NORTH: Tile = 000166, Process = 000000, Comm = put
(PID.TID 0000.0001) //                bi = 000006, bj = 000011
(PID.TID 0000.0001) // Tile number: 000151 (process no. = 000000)
(PID.TID 0000.0001) //        WEST: Tile = 000150, Process = 000000, Comm = put
(PID.TID 0000.0001) //                bi = 000006, bj = 000010
(PID.TID 0000.0001) //        EAST: Tile = 000152, Process = 000000, Comm = put
(PID.TID 0000.0001) //                bi = 000008, bj = 000010
(PID.TID 0000.0001) //       SOUTH: Tile = 000135, Process = 000000, Comm = put
(PID.TID 0000.0001) //                bi = 000007, bj = 000009
(PID.TID 0000.0001) //       NORTH: Tile = 000167, Process = 000000, Comm = put
(PID.TID 0000.0001) //                bi = 000007, bj = 000011
(PID.TID 0000.0001) // Tile number: 000152 (process no. = 000000)
(PID.TID 0000.0001) //        WEST: Tile = 000151, Process = 000000, Comm = put
(PID.TID 0000.0001) //                bi = 000007, bj = 000010
(PID.TID 0000.0001) //        EAST: Tile = 000153, Process = 000000, Comm = put
(PID.TID 0000.0001) //                bi = 000009, bj = 000010
(PID.TID 0000.0001) //       SOUTH: Tile = 000136, Process = 000000, Comm = put
(PID.TID 0000.0001) //                bi = 000008, bj = 000009
(PID.TID 0000.0001) //       NORTH: Tile = 000168, Process = 000000, Comm = put
(PID.TID 0000.0001) //                bi = 000008, bj = 000011
(PID.TID 0000.0001) // Tile number: 000153 (process no. = 000000)
(PID.TID 0000.0001) //        WEST: Tile = 000152, Process = 000000, Comm = put
(PID.TID 0000.0001) //                bi = 000008, bj = 000010
(PID.TID 0000.0001) //        EAST: Tile = 000154, Process = 000000, Comm = put
(PID.TID 0000.0001) //                bi = 000010, bj = 000010
(PID.TID 0000.0001) //       SOUTH: Tile = 000137, Process = 000000, Comm = put
(PID.TID 0000.0001) //                bi = 000009, bj = 000009
(PID.TID 0000.0001) //       NORTH: Tile = 000169, Process = 000000, Comm = put
(PID.TID 0000.0001) //                bi = 000009, bj = 000011
(PID.TID 0000.0001) // Tile number: 000154 (process no. = 000000)
(PID.TID 0000.0001) //        WEST: Tile = 000153, Process = 000000, Comm = put
(PID.TID 0000.0001) //                bi = 000009, bj = 000010
(PID.TID 0000.0001) //        EAST: Tile = 000155, Process = 000000, Comm = put
(PID.TID 0000.0001) //                bi = 000011, bj = 000010
(PID.TID 0000.0001) //       SOUTH: Tile = 000138, Process = 000000, Comm = put
(PID.TID 0000.0001) //                bi = 000010, bj = 000009
(PID.TID 0000.0001) //       NORTH: Tile = 000170, Process = 000000, Comm = put
(PID.TID 0000.0001) //                bi = 000010, bj = 000011
(PID.TID 0000.0001) // Tile number: 000155 (process no. = 000000)
(PID.TID 0000.0001) //        WEST: Tile = 000154, Process = 000000, Comm = put
(PID.TID 0000.0001) //                bi = 000010, bj = 000010
(PID.TID 0000.0001) //        EAST: Tile = 000156, Process = 000000, Comm = put
(PID.TID 0000.0001) //                bi = 000012, bj = 000010
(PID.TID 0000.0001) //       SOUTH: Tile = 000139, Process = 000000, Comm = put
(PID.TID 0000.0001) //                bi = 000011, bj = 000009
(PID.TID 0000.0001) //       NORTH: Tile = 000171, Process = 000000, Comm = put
(PID.TID 0000.0001) //                bi = 000011, bj = 000011
(PID.TID 0000.0001) // Tile number: 000156 (process no. = 000000)
(PID.TID 0000.0001) //        WEST: Tile = 000155, Process = 000000, Comm = put
(PID.TID 0000.0001) //                bi = 000011, bj = 000010
(PID.TID 0000.0001) //        EAST: Tile = 000157, Process = 000000, Comm = put
(PID.TID 0000.0001) //                bi = 000013, bj = 000010
(PID.TID 0000.0001) //       SOUTH: Tile = 000140, Process = 000000, Comm = put
(PID.TID 0000.0001) //                bi = 000012, bj = 000009
(PID.TID 0000.0001) //       NORTH: Tile = 000172, Process = 000000, Comm = put
(PID.TID 0000.0001) //                bi = 000012, bj = 000011
(PID.TID 0000.0001) // Tile number: 000157 (process no. = 000000)
(PID.TID 0000.0001) //        WEST: Tile = 000156, Process = 000000, Comm = put
(PID.TID 0000.0001) //                bi = 000012, bj = 000010
(PID.TID 0000.0001) //        EAST: Tile = 000158, Process = 000000, Comm = put
(PID.TID 0000.0001) //                bi = 000014, bj = 000010
(PID.TID 0000.0001) //       SOUTH: Tile = 000141, Process = 000000, Comm = put
(PID.TID 0000.0001) //                bi = 000013, bj = 000009
(PID.TID 0000.0001) //       NORTH: Tile = 000173, Process = 000000, Comm = put
(PID.TID 0000.0001) //                bi = 000013, bj = 000011
(PID.TID 0000.0001) // Tile number: 000158 (process no. = 000000)
(PID.TID 0000.0001) //        WEST: Tile = 000157, Process = 000000, Comm = put
(PID.TID 0000.0001) //                bi = 000013, bj = 000010
(PID.TID 0000.0001) //        EAST: Tile = 000159, Process = 000000, Comm = put
(PID.TID 0000.0001) //                bi = 000015, bj = 000010
(PID.TID 0000.0001) //       SOUTH: Tile = 000142, Process = 000000, Comm = put
(PID.TID 0000.0001) //                bi = 000014, bj = 000009
(PID.TID 0000.0001) //       NORTH: Tile = 000174, Process = 000000, Comm = put
(PID.TID 0000.0001) //                bi = 000014, bj = 000011
(PID.TID 0000.0001) // Tile number: 000159 (process no. = 000000)
(PID.TID 0000.0001) //        WEST: Tile = 000158, Process = 000000, Comm = put
(PID.TID 0000.0001) //                bi = 000014, bj = 000010
(PID.TID 0000.0001) //        EAST: Tile = 000160, Process = 000000, Comm = put
(PID.TID 0000.0001) //                bi = 000016, bj = 000010
(PID.TID 0000.0001) //       SOUTH: Tile = 000143, Process = 000000, Comm = put
(PID.TID 0000.0001) //                bi = 000015, bj = 000009
(PID.TID 0000.0001) //       NORTH: Tile = 000175, Process = 000000, Comm = put
(PID.TID 0000.0001) //                bi = 000015, bj = 000011
(PID.TID 0000.0001) // Tile number: 000160 (process no. = 000000)
(PID.TID 0000.0001) //        WEST: Tile = 000159, Process = 000000, Comm = put
(PID.TID 0000.0001) //                bi = 000015, bj = 000010
(PID.TID 0000.0001) //        EAST: Tile = 000145, Process = 000000, Comm = put
(PID.TID 0000.0001) //                bi = 000001, bj = 000010
(PID.TID 0000.0001) //       SOUTH: Tile = 000144, Process = 000000, Comm = put
(PID.TID 0000.0001) //                bi = 000016, bj = 000009
(PID.TID 0000.0001) //       NORTH: Tile = 000176, Process = 000000, Comm = put
(PID.TID 0000.0001) //                bi = 000016, bj = 000011
(PID.TID 0000.0001) // Tile number: 000161 (process no. = 000000)
(PID.TID 0000.0001) //        WEST: Tile = 000176, Process = 000000, Comm = put
(PID.TID 0000.0001) //                bi = 000016, bj = 000011
(PID.TID 0000.0001) //        EAST: Tile = 000162, Process = 000000, Comm = put
(PID.TID 0000.0001) //                bi = 000002, bj = 000011
(PID.TID 0000.0001) //       SOUTH: Tile = 000145, Process = 000000, Comm = put
(PID.TID 0000.0001) //                bi = 000001, bj = 000010
(PID.TID 0000.0001) //       NORTH: Tile = 000177, Process = 000000, Comm = put
(PID.TID 0000.0001) //                bi = 000001, bj = 000012
(PID.TID 0000.0001) // Tile number: 000162 (process no. = 000000)
(PID.TID 0000.0001) //        WEST: Tile = 000161, Process = 000000, Comm = put
(PID.TID 0000.0001) //                bi = 000001, bj = 000011
(PID.TID 0000.0001) //        EAST: Tile = 000163, Process = 000000, Comm = put
(PID.TID 0000.0001) //                bi = 000003, bj = 000011
(PID.TID 0000.0001) //       SOUTH: Tile = 000146, Process = 000000, Comm = put
(PID.TID 0000.0001) //                bi = 000002, bj = 000010
(PID.TID 0000.0001) //       NORTH: Tile = 000178, Process = 000000, Comm = put
(PID.TID 0000.0001) //                bi = 000002, bj = 000012
(PID.TID 0000.0001) // Tile number: 000163 (process no. = 000000)
(PID.TID 0000.0001) //        WEST: Tile = 000162, Process = 000000, Comm = put
(PID.TID 0000.0001) //                bi = 000002, bj = 000011
(PID.TID 0000.0001) //        EAST: Tile = 000164, Process = 000000, Comm = put
(PID.TID 0000.0001) //                bi = 000004, bj = 000011
(PID.TID 0000.0001) //       SOUTH: Tile = 000147, Process = 000000, Comm = put
(PID.TID 0000.0001) //                bi = 000003, bj = 000010
(PID.TID 0000.0001) //       NORTH: Tile = 000179, Process = 000000, Comm = put
(PID.TID 0000.0001) //                bi = 000003, bj = 000012
(PID.TID 0000.0001) // Tile number: 000164 (process no. = 000000)
(PID.TID 0000.0001) //        WEST: Tile = 000163, Process = 000000, Comm = put
(PID.TID 0000.0001) //                bi = 000003, bj = 000011
(PID.TID 0000.0001) //        EAST: Tile = 000165, Process = 000000, Comm = put
(PID.TID 0000.0001) //                bi = 000005, bj = 000011
(PID.TID 0000.0001) //       SOUTH: Tile = 000148, Process = 000000, Comm = put
(PID.TID 0000.0001) //                bi = 000004, bj = 000010
(PID.TID 0000.0001) //       NORTH: Tile = 000180, Process = 000000, Comm = put
(PID.TID 0000.0001) //                bi = 000004, bj = 000012
(PID.TID 0000.0001) // Tile number: 000165 (process no. = 000000)
(PID.TID 0000.0001) //        WEST: Tile = 000164, Process = 000000, Comm = put
(PID.TID 0000.0001) //                bi = 000004, bj = 000011
(PID.TID 0000.0001) //        EAST: Tile = 000166, Process = 000000, Comm = put
(PID.TID 0000.0001) //                bi = 000006, bj = 000011
(PID.TID 0000.0001) //       SOUTH: Tile = 000149, Process = 000000, Comm = put
(PID.TID 0000.0001) //                bi = 000005, bj = 000010
(PID.TID 0000.0001) //       NORTH: Tile = 000181, Process = 000000, Comm = put
(PID.TID 0000.0001) //                bi = 000005, bj = 000012
(PID.TID 0000.0001) // Tile number: 000166 (process no. = 000000)
(PID.TID 0000.0001) //        WEST: Tile = 000165, Process = 000000, Comm = put
(PID.TID 0000.0001) //                bi = 000005, bj = 000011
(PID.TID 0000.0001) //        EAST: Tile = 000167, Process = 000000, Comm = put
(PID.TID 0000.0001) //                bi = 000007, bj = 000011
(PID.TID 0000.0001) //       SOUTH: Tile = 000150, Process = 000000, Comm = put
(PID.TID 0000.0001) //                bi = 000006, bj = 000010
(PID.TID 0000.0001) //       NORTH: Tile = 000182, Process = 000000, Comm = put
(PID.TID 0000.0001) //                bi = 000006, bj = 000012
(PID.TID 0000.0001) // Tile number: 000167 (process no. = 000000)
(PID.TID 0000.0001) //        WEST: Tile = 000166, Process = 000000, Comm = put
(PID.TID 0000.0001) //                bi = 000006, bj = 000011
(PID.TID 0000.0001) //        EAST: Tile = 000168, Process = 000000, Comm = put
(PID.TID 0000.0001) //                bi = 000008, bj = 000011
(PID.TID 0000.0001) //       SOUTH: Tile = 000151, Process = 000000, Comm = put
(PID.TID 0000.0001) //                bi = 000007, bj = 000010
(PID.TID 0000.0001) //       NORTH: Tile = 000183, Process = 000000, Comm = put
(PID.TID 0000.0001) //                bi = 000007, bj = 000012
(PID.TID 0000.0001) // Tile number: 000168 (process no. = 000000)
(PID.TID 0000.0001) //        WEST: Tile = 000167, Process = 000000, Comm = put
(PID.TID 0000.0001) //                bi = 000007, bj = 000011
(PID.TID 0000.0001) //        EAST: Tile = 000169, Process = 000000, Comm = put
(PID.TID 0000.0001) //                bi = 000009, bj = 000011
(PID.TID 0000.0001) //       SOUTH: Tile = 000152, Process = 000000, Comm = put
(PID.TID 0000.0001) //                bi = 000008, bj = 000010
(PID.TID 0000.0001) //       NORTH: Tile = 000184, Process = 000000, Comm = put
(PID.TID 0000.0001) //                bi = 000008, bj = 000012
(PID.TID 0000.0001) // Tile number: 000169 (process no. = 000000)
(PID.TID 0000.0001) //        WEST: Tile = 000168, Process = 000000, Comm = put
(PID.TID 0000.0001) //                bi = 000008, bj = 000011
(PID.TID 0000.0001) //        EAST: Tile = 000170, Process = 000000, Comm = put
(PID.TID 0000.0001) //                bi = 000010, bj = 000011
(PID.TID 0000.0001) //       SOUTH: Tile = 000153, Process = 000000, Comm = put
(PID.TID 0000.0001) //                bi = 000009, bj = 000010
(PID.TID 0000.0001) //       NORTH: Tile = 000185, Process = 000000, Comm = put
(PID.TID 0000.0001) //                bi = 000009, bj = 000012
(PID.TID 0000.0001) // Tile number: 000170 (process no. = 000000)
(PID.TID 0000.0001) //        WEST: Tile = 000169, Process = 000000, Comm = put
(PID.TID 0000.0001) //                bi = 000009, bj = 000011
(PID.TID 0000.0001) //        EAST: Tile = 000171, Process = 000000, Comm = put
(PID.TID 0000.0001) //                bi = 000011, bj = 000011
(PID.TID 0000.0001) //       SOUTH: Tile = 000154, Process = 000000, Comm = put
(PID.TID 0000.0001) //                bi = 000010, bj = 000010
(PID.TID 0000.0001) //       NORTH: Tile = 000186, Process = 000000, Comm = put
(PID.TID 0000.0001) //                bi = 000010, bj = 000012
(PID.TID 0000.0001) // Tile number: 000171 (process no. = 000000)
(PID.TID 0000.0001) //        WEST: Tile = 000170, Process = 000000, Comm = put
(PID.TID 0000.0001) //                bi = 000010, bj = 000011
(PID.TID 0000.0001) //        EAST: Tile = 000172, Process = 000000, Comm = put
(PID.TID 0000.0001) //                bi = 000012, bj = 000011
(PID.TID 0000.0001) //       SOUTH: Tile = 000155, Process = 000000, Comm = put
(PID.TID 0000.0001) //                bi = 000011, bj = 000010
(PID.TID 0000.0001) //       NORTH: Tile = 000187, Process = 000000, Comm = put
(PID.TID 0000.0001) //                bi = 000011, bj = 000012
(PID.TID 0000.0001) // Tile number: 000172 (process no. = 000000)
(PID.TID 0000.0001) //        WEST: Tile = 000171, Process = 000000, Comm = put
(PID.TID 0000.0001) //                bi = 000011, bj = 000011
(PID.TID 0000.0001) //        EAST: Tile = 000173, Process = 000000, Comm = put
(PID.TID 0000.0001) //                bi = 000013, bj = 000011
(PID.TID 0000.0001) //       SOUTH: Tile = 000156, Process = 000000, Comm = put
(PID.TID 0000.0001) //                bi = 000012, bj = 000010
(PID.TID 0000.0001) //       NORTH: Tile = 000188, Process = 000000, Comm = put
(PID.TID 0000.0001) //                bi = 000012, bj = 000012
(PID.TID 0000.0001) // Tile number: 000173 (process no. = 000000)
(PID.TID 0000.0001) //        WEST: Tile = 000172, Process = 000000, Comm = put
(PID.TID 0000.0001) //                bi = 000012, bj = 000011
(PID.TID 0000.0001) //        EAST: Tile = 000174, Process = 000000, Comm = put
(PID.TID 0000.0001) //                bi = 000014, bj = 000011
(PID.TID 0000.0001) //       SOUTH: Tile = 000157, Process = 000000, Comm = put
(PID.TID 0000.0001) //                bi = 000013, bj = 000010
(PID.TID 0000.0001) //       NORTH: Tile = 000189, Process = 000000, Comm = put
(PID.TID 0000.0001) //                bi = 000013, bj = 000012
(PID.TID 0000.0001) // Tile number: 000174 (process no. = 000000)
(PID.TID 0000.0001) //        WEST: Tile = 000173, Process = 000000, Comm = put
(PID.TID 0000.0001) //                bi = 000013, bj = 000011
(PID.TID 0000.0001) //        EAST: Tile = 000175, Process = 000000, Comm = put
(PID.TID 0000.0001) //                bi = 000015, bj = 000011
(PID.TID 0000.0001) //       SOUTH: Tile = 000158, Process = 000000, Comm = put
(PID.TID 0000.0001) //                bi = 000014, bj = 000010
(PID.TID 0000.0001) //       NORTH: Tile = 000190, Process = 000000, Comm = put
(PID.TID 0000.0001) //                bi = 000014, bj = 000012
(PID.TID 0000.0001) // Tile number: 000175 (process no. = 000000)
(PID.TID 0000.0001) //        WEST: Tile = 000174, Process = 000000, Comm = put
(PID.TID 0000.0001) //                bi = 000014, bj = 000011
(PID.TID 0000.0001) //        EAST: Tile = 000176, Process = 000000, Comm = put
(PID.TID 0000.0001) //                bi = 000016, bj = 000011
(PID.TID 0000.0001) //       SOUTH: Tile = 000159, Process = 000000, Comm = put
(PID.TID 0000.0001) //                bi = 000015, bj = 000010
(PID.TID 0000.0001) //       NORTH: Tile = 000191, Process = 000000, Comm = put
(PID.TID 0000.0001) //                bi = 000015, bj = 000012
(PID.TID 0000.0001) // Tile number: 000176 (process no. = 000000)
(PID.TID 0000.0001) //        WEST: Tile = 000175, Process = 000000, Comm = put
(PID.TID 0000.0001) //                bi = 000015, bj = 000011
(PID.TID 0000.0001) //        EAST: Tile = 000161, Process = 000000, Comm = put
(PID.TID 0000.0001) //                bi = 000001, bj = 000011
(PID.TID 0000.0001) //       SOUTH: Tile = 000160, Process = 000000, Comm = put
(PID.TID 0000.0001) //                bi = 000016, bj = 000010
(PID.TID 0000.0001) //       NORTH: Tile = 000192, Process = 000000, Comm = put
(PID.TID 0000.0001) //                bi = 000016, bj = 000012
(PID.TID 0000.0001) // Tile number: 000177 (process no. = 000000)
(PID.TID 0000.0001) //        WEST: Tile = 000192, Process = 000000, Comm = put
(PID.TID 0000.0001) //                bi = 000016, bj = 000012
(PID.TID 0000.0001) //        EAST: Tile = 000178, Process = 000000, Comm = put
(PID.TID 0000.0001) //                bi = 000002, bj = 000012
(PID.TID 0000.0001) //       SOUTH: Tile = 000161, Process = 000000, Comm = put
(PID.TID 0000.0001) //                bi = 000001, bj = 000011
(PID.TID 0000.0001) //       NORTH: Tile = 000193, Process = 000000, Comm = put
(PID.TID 0000.0001) //                bi = 000001, bj = 000013
(PID.TID 0000.0001) // Tile number: 000178 (process no. = 000000)
(PID.TID 0000.0001) //        WEST: Tile = 000177, Process = 000000, Comm = put
(PID.TID 0000.0001) //                bi = 000001, bj = 000012
(PID.TID 0000.0001) //        EAST: Tile = 000179, Process = 000000, Comm = put
(PID.TID 0000.0001) //                bi = 000003, bj = 000012
(PID.TID 0000.0001) //       SOUTH: Tile = 000162, Process = 000000, Comm = put
(PID.TID 0000.0001) //                bi = 000002, bj = 000011
(PID.TID 0000.0001) //       NORTH: Tile = 000194, Process = 000000, Comm = put
(PID.TID 0000.0001) //                bi = 000002, bj = 000013
(PID.TID 0000.0001) // Tile number: 000179 (process no. = 000000)
(PID.TID 0000.0001) //        WEST: Tile = 000178, Process = 000000, Comm = put
(PID.TID 0000.0001) //                bi = 000002, bj = 000012
(PID.TID 0000.0001) //        EAST: Tile = 000180, Process = 000000, Comm = put
(PID.TID 0000.0001) //                bi = 000004, bj = 000012
(PID.TID 0000.0001) //       SOUTH: Tile = 000163, Process = 000000, Comm = put
(PID.TID 0000.0001) //                bi = 000003, bj = 000011
(PID.TID 0000.0001) //       NORTH: Tile = 000195, Process = 000000, Comm = put
(PID.TID 0000.0001) //                bi = 000003, bj = 000013
(PID.TID 0000.0001) // Tile number: 000180 (process no. = 000000)
(PID.TID 0000.0001) //        WEST: Tile = 000179, Process = 000000, Comm = put
(PID.TID 0000.0001) //                bi = 000003, bj = 000012
(PID.TID 0000.0001) //        EAST: Tile = 000181, Process = 000000, Comm = put
(PID.TID 0000.0001) //                bi = 000005, bj = 000012
(PID.TID 0000.0001) //       SOUTH: Tile = 000164, Process = 000000, Comm = put
(PID.TID 0000.0001) //                bi = 000004, bj = 000011
(PID.TID 0000.0001) //       NORTH: Tile = 000196, Process = 000000, Comm = put
(PID.TID 0000.0001) //                bi = 000004, bj = 000013
(PID.TID 0000.0001) // Tile number: 000181 (process no. = 000000)
(PID.TID 0000.0001) //        WEST: Tile = 000180, Process = 000000, Comm = put
(PID.TID 0000.0001) //                bi = 000004, bj = 000012
(PID.TID 0000.0001) //        EAST: Tile = 000182, Process = 000000, Comm = put
(PID.TID 0000.0001) //                bi = 000006, bj = 000012
(PID.TID 0000.0001) //       SOUTH: Tile = 000165, Process = 000000, Comm = put
(PID.TID 0000.0001) //                bi = 000005, bj = 000011
(PID.TID 0000.0001) //       NORTH: Tile = 000197, Process = 000000, Comm = put
(PID.TID 0000.0001) //                bi = 000005, bj = 000013
(PID.TID 0000.0001) // Tile number: 000182 (process no. = 000000)
(PID.TID 0000.0001) //        WEST: Tile = 000181, Process = 000000, Comm = put
(PID.TID 0000.0001) //                bi = 000005, bj = 000012
(PID.TID 0000.0001) //        EAST: Tile = 000183, Process = 000000, Comm = put
(PID.TID 0000.0001) //                bi = 000007, bj = 000012
(PID.TID 0000.0001) //       SOUTH: Tile = 000166, Process = 000000, Comm = put
(PID.TID 0000.0001) //                bi = 000006, bj = 000011
(PID.TID 0000.0001) //       NORTH: Tile = 000198, Process = 000000, Comm = put
(PID.TID 0000.0001) //                bi = 000006, bj = 000013
(PID.TID 0000.0001) // Tile number: 000183 (process no. = 000000)
(PID.TID 0000.0001) //        WEST: Tile = 000182, Process = 000000, Comm = put
(PID.TID 0000.0001) //                bi = 000006, bj = 000012
(PID.TID 0000.0001) //        EAST: Tile = 000184, Process = 000000, Comm = put
(PID.TID 0000.0001) //                bi = 000008, bj = 000012
(PID.TID 0000.0001) //       SOUTH: Tile = 000167, Process = 000000, Comm = put
(PID.TID 0000.0001) //                bi = 000007, bj = 000011
(PID.TID 0000.0001) //       NORTH: Tile = 000199, Process = 000000, Comm = put
(PID.TID 0000.0001) //                bi = 000007, bj = 000013
(PID.TID 0000.0001) // Tile number: 000184 (process no. = 000000)
(PID.TID 0000.0001) //        WEST: Tile = 000183, Process = 000000, Comm = put
(PID.TID 0000.0001) //                bi = 000007, bj = 000012
(PID.TID 0000.0001) //        EAST: Tile = 000185, Process = 000000, Comm = put
(PID.TID 0000.0001) //                bi = 000009, bj = 000012
(PID.TID 0000.0001) //       SOUTH: Tile = 000168, Process = 000000, Comm = put
(PID.TID 0000.0001) //                bi = 000008, bj = 000011
(PID.TID 0000.0001) //       NORTH: Tile = 000200, Process = 000000, Comm = put
(PID.TID 0000.0001) //                bi = 000008, bj = 000013
(PID.TID 0000.0001) // Tile number: 000185 (process no. = 000000)
(PID.TID 0000.0001) //        WEST: Tile = 000184, Process = 000000, Comm = put
(PID.TID 0000.0001) //                bi = 000008, bj = 000012
(PID.TID 0000.0001) //        EAST: Tile = 000186, Process = 000000, Comm = put
(PID.TID 0000.0001) //                bi = 000010, bj = 000012
(PID.TID 0000.0001) //       SOUTH: Tile = 000169, Process = 000000, Comm = put
(PID.TID 0000.0001) //                bi = 000009, bj = 000011
(PID.TID 0000.0001) //       NORTH: Tile = 000201, Process = 000000, Comm = put
(PID.TID 0000.0001) //                bi = 000009, bj = 000013
(PID.TID 0000.0001) // Tile number: 000186 (process no. = 000000)
(PID.TID 0000.0001) //        WEST: Tile = 000185, Process = 000000, Comm = put
(PID.TID 0000.0001) //                bi = 000009, bj = 000012
(PID.TID 0000.0001) //        EAST: Tile = 000187, Process = 000000, Comm = put
(PID.TID 0000.0001) //                bi = 000011, bj = 000012
(PID.TID 0000.0001) //       SOUTH: Tile = 000170, Process = 000000, Comm = put
(PID.TID 0000.0001) //                bi = 000010, bj = 000011
(PID.TID 0000.0001) //       NORTH: Tile = 000202, Process = 000000, Comm = put
(PID.TID 0000.0001) //                bi = 000010, bj = 000013
(PID.TID 0000.0001) // Tile number: 000187 (process no. = 000000)
(PID.TID 0000.0001) //        WEST: Tile = 000186, Process = 000000, Comm = put
(PID.TID 0000.0001) //                bi = 000010, bj = 000012
(PID.TID 0000.0001) //        EAST: Tile = 000188, Process = 000000, Comm = put
(PID.TID 0000.0001) //                bi = 000012, bj = 000012
(PID.TID 0000.0001) //       SOUTH: Tile = 000171, Process = 000000, Comm = put
(PID.TID 0000.0001) //                bi = 000011, bj = 000011
(PID.TID 0000.0001) //       NORTH: Tile = 000203, Process = 000000, Comm = put
(PID.TID 0000.0001) //                bi = 000011, bj = 000013
(PID.TID 0000.0001) // Tile number: 000188 (process no. = 000000)
(PID.TID 0000.0001) //        WEST: Tile = 000187, Process = 000000, Comm = put
(PID.TID 0000.0001) //                bi = 000011, bj = 000012
(PID.TID 0000.0001) //        EAST: Tile = 000189, Process = 000000, Comm = put
(PID.TID 0000.0001) //                bi = 000013, bj = 000012
(PID.TID 0000.0001) //       SOUTH: Tile = 000172, Process = 000000, Comm = put
(PID.TID 0000.0001) //                bi = 000012, bj = 000011
(PID.TID 0000.0001) //       NORTH: Tile = 000204, Process = 000000, Comm = put
(PID.TID 0000.0001) //                bi = 000012, bj = 000013
(PID.TID 0000.0001) // Tile number: 000189 (process no. = 000000)
(PID.TID 0000.0001) //        WEST: Tile = 000188, Process = 000000, Comm = put
(PID.TID 0000.0001) //                bi = 000012, bj = 000012
(PID.TID 0000.0001) //        EAST: Tile = 000190, Process = 000000, Comm = put
(PID.TID 0000.0001) //                bi = 000014, bj = 000012
(PID.TID 0000.0001) //       SOUTH: Tile = 000173, Process = 000000, Comm = put
(PID.TID 0000.0001) //                bi = 000013, bj = 000011
(PID.TID 0000.0001) //       NORTH: Tile = 000205, Process = 000000, Comm = put
(PID.TID 0000.0001) //                bi = 000013, bj = 000013
(PID.TID 0000.0001) // Tile number: 000190 (process no. = 000000)
(PID.TID 0000.0001) //        WEST: Tile = 000189, Process = 000000, Comm = put
(PID.TID 0000.0001) //                bi = 000013, bj = 000012
(PID.TID 0000.0001) //        EAST: Tile = 000191, Process = 000000, Comm = put
(PID.TID 0000.0001) //                bi = 000015, bj = 000012
(PID.TID 0000.0001) //       SOUTH: Tile = 000174, Process = 000000, Comm = put
(PID.TID 0000.0001) //                bi = 000014, bj = 000011
(PID.TID 0000.0001) //       NORTH: Tile = 000206, Process = 000000, Comm = put
(PID.TID 0000.0001) //                bi = 000014, bj = 000013
(PID.TID 0000.0001) // Tile number: 000191 (process no. = 000000)
(PID.TID 0000.0001) //        WEST: Tile = 000190, Process = 000000, Comm = put
(PID.TID 0000.0001) //                bi = 000014, bj = 000012
(PID.TID 0000.0001) //        EAST: Tile = 000192, Process = 000000, Comm = put
(PID.TID 0000.0001) //                bi = 000016, bj = 000012
(PID.TID 0000.0001) //       SOUTH: Tile = 000175, Process = 000000, Comm = put
(PID.TID 0000.0001) //                bi = 000015, bj = 000011
(PID.TID 0000.0001) //       NORTH: Tile = 000207, Process = 000000, Comm = put
(PID.TID 0000.0001) //                bi = 000015, bj = 000013
(PID.TID 0000.0001) // Tile number: 000192 (process no. = 000000)
(PID.TID 0000.0001) //        WEST: Tile = 000191, Process = 000000, Comm = put
(PID.TID 0000.0001) //                bi = 000015, bj = 000012
(PID.TID 0000.0001) //        EAST: Tile = 000177, Process = 000000, Comm = put
(PID.TID 0000.0001) //                bi = 000001, bj = 000012
(PID.TID 0000.0001) //       SOUTH: Tile = 000176, Process = 000000, Comm = put
(PID.TID 0000.0001) //                bi = 000016, bj = 000011
(PID.TID 0000.0001) //       NORTH: Tile = 000208, Process = 000000, Comm = put
(PID.TID 0000.0001) //                bi = 000016, bj = 000013
(PID.TID 0000.0001) // Tile number: 000193 (process no. = 000000)
(PID.TID 0000.0001) //        WEST: Tile = 000208, Process = 000000, Comm = put
(PID.TID 0000.0001) //                bi = 000016, bj = 000013
(PID.TID 0000.0001) //        EAST: Tile = 000194, Process = 000000, Comm = put
(PID.TID 0000.0001) //                bi = 000002, bj = 000013
(PID.TID 0000.0001) //       SOUTH: Tile = 000177, Process = 000000, Comm = put
(PID.TID 0000.0001) //                bi = 000001, bj = 000012
(PID.TID 0000.0001) //       NORTH: Tile = 000209, Process = 000000, Comm = put
(PID.TID 0000.0001) //                bi = 000001, bj = 000014
(PID.TID 0000.0001) // Tile number: 000194 (process no. = 000000)
(PID.TID 0000.0001) //        WEST: Tile = 000193, Process = 000000, Comm = put
(PID.TID 0000.0001) //                bi = 000001, bj = 000013
(PID.TID 0000.0001) //        EAST: Tile = 000195, Process = 000000, Comm = put
(PID.TID 0000.0001) //                bi = 000003, bj = 000013
(PID.TID 0000.0001) //       SOUTH: Tile = 000178, Process = 000000, Comm = put
(PID.TID 0000.0001) //                bi = 000002, bj = 000012
(PID.TID 0000.0001) //       NORTH: Tile = 000210, Process = 000000, Comm = put
(PID.TID 0000.0001) //                bi = 000002, bj = 000014
(PID.TID 0000.0001) // Tile number: 000195 (process no. = 000000)
(PID.TID 0000.0001) //        WEST: Tile = 000194, Process = 000000, Comm = put
(PID.TID 0000.0001) //                bi = 000002, bj = 000013
(PID.TID 0000.0001) //        EAST: Tile = 000196, Process = 000000, Comm = put
(PID.TID 0000.0001) //                bi = 000004, bj = 000013
(PID.TID 0000.0001) //       SOUTH: Tile = 000179, Process = 000000, Comm = put
(PID.TID 0000.0001) //                bi = 000003, bj = 000012
(PID.TID 0000.0001) //       NORTH: Tile = 000211, Process = 000000, Comm = put
(PID.TID 0000.0001) //                bi = 000003, bj = 000014
(PID.TID 0000.0001) // Tile number: 000196 (process no. = 000000)
(PID.TID 0000.0001) //        WEST: Tile = 000195, Process = 000000, Comm = put
(PID.TID 0000.0001) //                bi = 000003, bj = 000013
(PID.TID 0000.0001) //        EAST: Tile = 000197, Process = 000000, Comm = put
(PID.TID 0000.0001) //                bi = 000005, bj = 000013
(PID.TID 0000.0001) //       SOUTH: Tile = 000180, Process = 000000, Comm = put
(PID.TID 0000.0001) //                bi = 000004, bj = 000012
(PID.TID 0000.0001) //       NORTH: Tile = 000212, Process = 000000, Comm = put
(PID.TID 0000.0001) //                bi = 000004, bj = 000014
(PID.TID 0000.0001) // Tile number: 000197 (process no. = 000000)
(PID.TID 0000.0001) //        WEST: Tile = 000196, Process = 000000, Comm = put
(PID.TID 0000.0001) //                bi = 000004, bj = 000013
(PID.TID 0000.0001) //        EAST: Tile = 000198, Process = 000000, Comm = put
(PID.TID 0000.0001) //                bi = 000006, bj = 000013
(PID.TID 0000.0001) //       SOUTH: Tile = 000181, Process = 000000, Comm = put
(PID.TID 0000.0001) //                bi = 000005, bj = 000012
(PID.TID 0000.0001) //       NORTH: Tile = 000213, Process = 000000, Comm = put
(PID.TID 0000.0001) //                bi = 000005, bj = 000014
(PID.TID 0000.0001) // Tile number: 000198 (process no. = 000000)
(PID.TID 0000.0001) //        WEST: Tile = 000197, Process = 000000, Comm = put
(PID.TID 0000.0001) //                bi = 000005, bj = 000013
(PID.TID 0000.0001) //        EAST: Tile = 000199, Process = 000000, Comm = put
(PID.TID 0000.0001) //                bi = 000007, bj = 000013
(PID.TID 0000.0001) //       SOUTH: Tile = 000182, Process = 000000, Comm = put
(PID.TID 0000.0001) //                bi = 000006, bj = 000012
(PID.TID 0000.0001) //       NORTH: Tile = 000214, Process = 000000, Comm = put
(PID.TID 0000.0001) //                bi = 000006, bj = 000014
(PID.TID 0000.0001) // Tile number: 000199 (process no. = 000000)
(PID.TID 0000.0001) //        WEST: Tile = 000198, Process = 000000, Comm = put
(PID.TID 0000.0001) //                bi = 000006, bj = 000013
(PID.TID 0000.0001) //        EAST: Tile = 000200, Process = 000000, Comm = put
(PID.TID 0000.0001) //                bi = 000008, bj = 000013
(PID.TID 0000.0001) //       SOUTH: Tile = 000183, Process = 000000, Comm = put
(PID.TID 0000.0001) //                bi = 000007, bj = 000012
(PID.TID 0000.0001) //       NORTH: Tile = 000215, Process = 000000, Comm = put
(PID.TID 0000.0001) //                bi = 000007, bj = 000014
(PID.TID 0000.0001) // Tile number: 000200 (process no. = 000000)
(PID.TID 0000.0001) //        WEST: Tile = 000199, Process = 000000, Comm = put
(PID.TID 0000.0001) //                bi = 000007, bj = 000013
(PID.TID 0000.0001) //        EAST: Tile = 000201, Process = 000000, Comm = put
(PID.TID 0000.0001) //                bi = 000009, bj = 000013
(PID.TID 0000.0001) //       SOUTH: Tile = 000184, Process = 000000, Comm = put
(PID.TID 0000.0001) //                bi = 000008, bj = 000012
(PID.TID 0000.0001) //       NORTH: Tile = 000216, Process = 000000, Comm = put
(PID.TID 0000.0001) //                bi = 000008, bj = 000014
(PID.TID 0000.0001) // Tile number: 000201 (process no. = 000000)
(PID.TID 0000.0001) //        WEST: Tile = 000200, Process = 000000, Comm = put
(PID.TID 0000.0001) //                bi = 000008, bj = 000013
(PID.TID 0000.0001) //        EAST: Tile = 000202, Process = 000000, Comm = put
(PID.TID 0000.0001) //                bi = 000010, bj = 000013
(PID.TID 0000.0001) //       SOUTH: Tile = 000185, Process = 000000, Comm = put
(PID.TID 0000.0001) //                bi = 000009, bj = 000012
(PID.TID 0000.0001) //       NORTH: Tile = 000217, Process = 000000, Comm = put
(PID.TID 0000.0001) //                bi = 000009, bj = 000014
(PID.TID 0000.0001) // Tile number: 000202 (process no. = 000000)
(PID.TID 0000.0001) //        WEST: Tile = 000201, Process = 000000, Comm = put
(PID.TID 0000.0001) //                bi = 000009, bj = 000013
(PID.TID 0000.0001) //        EAST: Tile = 000203, Process = 000000, Comm = put
(PID.TID 0000.0001) //                bi = 000011, bj = 000013
(PID.TID 0000.0001) //       SOUTH: Tile = 000186, Process = 000000, Comm = put
(PID.TID 0000.0001) //                bi = 000010, bj = 000012
(PID.TID 0000.0001) //       NORTH: Tile = 000218, Process = 000000, Comm = put
(PID.TID 0000.0001) //                bi = 000010, bj = 000014
(PID.TID 0000.0001) // Tile number: 000203 (process no. = 000000)
(PID.TID 0000.0001) //        WEST: Tile = 000202, Process = 000000, Comm = put
(PID.TID 0000.0001) //                bi = 000010, bj = 000013
(PID.TID 0000.0001) //        EAST: Tile = 000204, Process = 000000, Comm = put
(PID.TID 0000.0001) //                bi = 000012, bj = 000013
(PID.TID 0000.0001) //       SOUTH: Tile = 000187, Process = 000000, Comm = put
(PID.TID 0000.0001) //                bi = 000011, bj = 000012
(PID.TID 0000.0001) //       NORTH: Tile = 000219, Process = 000000, Comm = put
(PID.TID 0000.0001) //                bi = 000011, bj = 000014
(PID.TID 0000.0001) // Tile number: 000204 (process no. = 000000)
(PID.TID 0000.0001) //        WEST: Tile = 000203, Process = 000000, Comm = put
(PID.TID 0000.0001) //                bi = 000011, bj = 000013
(PID.TID 0000.0001) //        EAST: Tile = 000205, Process = 000000, Comm = put
(PID.TID 0000.0001) //                bi = 000013, bj = 000013
(PID.TID 0000.0001) //       SOUTH: Tile = 000188, Process = 000000, Comm = put
(PID.TID 0000.0001) //                bi = 000012, bj = 000012
(PID.TID 0000.0001) //       NORTH: Tile = 000220, Process = 000000, Comm = put
(PID.TID 0000.0001) //                bi = 000012, bj = 000014
(PID.TID 0000.0001) // Tile number: 000205 (process no. = 000000)
(PID.TID 0000.0001) //        WEST: Tile = 000204, Process = 000000, Comm = put
(PID.TID 0000.0001) //                bi = 000012, bj = 000013
(PID.TID 0000.0001) //        EAST: Tile = 000206, Process = 000000, Comm = put
(PID.TID 0000.0001) //                bi = 000014, bj = 000013
(PID.TID 0000.0001) //       SOUTH: Tile = 000189, Process = 000000, Comm = put
(PID.TID 0000.0001) //                bi = 000013, bj = 000012
(PID.TID 0000.0001) //       NORTH: Tile = 000221, Process = 000000, Comm = put
(PID.TID 0000.0001) //                bi = 000013, bj = 000014
(PID.TID 0000.0001) // Tile number: 000206 (process no. = 000000)
(PID.TID 0000.0001) //        WEST: Tile = 000205, Process = 000000, Comm = put
(PID.TID 0000.0001) //                bi = 000013, bj = 000013
(PID.TID 0000.0001) //        EAST: Tile = 000207, Process = 000000, Comm = put
(PID.TID 0000.0001) //                bi = 000015, bj = 000013
(PID.TID 0000.0001) //       SOUTH: Tile = 000190, Process = 000000, Comm = put
(PID.TID 0000.0001) //                bi = 000014, bj = 000012
(PID.TID 0000.0001) //       NORTH: Tile = 000222, Process = 000000, Comm = put
(PID.TID 0000.0001) //                bi = 000014, bj = 000014
(PID.TID 0000.0001) // Tile number: 000207 (process no. = 000000)
(PID.TID 0000.0001) //        WEST: Tile = 000206, Process = 000000, Comm = put
(PID.TID 0000.0001) //                bi = 000014, bj = 000013
(PID.TID 0000.0001) //        EAST: Tile = 000208, Process = 000000, Comm = put
(PID.TID 0000.0001) //                bi = 000016, bj = 000013
(PID.TID 0000.0001) //       SOUTH: Tile = 000191, Process = 000000, Comm = put
(PID.TID 0000.0001) //                bi = 000015, bj = 000012
(PID.TID 0000.0001) //       NORTH: Tile = 000223, Process = 000000, Comm = put
(PID.TID 0000.0001) //                bi = 000015, bj = 000014
(PID.TID 0000.0001) // Tile number: 000208 (process no. = 000000)
(PID.TID 0000.0001) //        WEST: Tile = 000207, Process = 000000, Comm = put
(PID.TID 0000.0001) //                bi = 000015, bj = 000013
(PID.TID 0000.0001) //        EAST: Tile = 000193, Process = 000000, Comm = put
(PID.TID 0000.0001) //                bi = 000001, bj = 000013
(PID.TID 0000.0001) //       SOUTH: Tile = 000192, Process = 000000, Comm = put
(PID.TID 0000.0001) //                bi = 000016, bj = 000012
(PID.TID 0000.0001) //       NORTH: Tile = 000224, Process = 000000, Comm = put
(PID.TID 0000.0001) //                bi = 000016, bj = 000014
(PID.TID 0000.0001) // Tile number: 000209 (process no. = 000000)
(PID.TID 0000.0001) //        WEST: Tile = 000224, Process = 000000, Comm = put
(PID.TID 0000.0001) //                bi = 000016, bj = 000014
(PID.TID 0000.0001) //        EAST: Tile = 000210, Process = 000000, Comm = put
(PID.TID 0000.0001) //                bi = 000002, bj = 000014
(PID.TID 0000.0001) //       SOUTH: Tile = 000193, Process = 000000, Comm = put
(PID.TID 0000.0001) //                bi = 000001, bj = 000013
(PID.TID 0000.0001) //       NORTH: Tile = 000225, Process = 000000, Comm = put
(PID.TID 0000.0001) //                bi = 000001, bj = 000015
(PID.TID 0000.0001) // Tile number: 000210 (process no. = 000000)
(PID.TID 0000.0001) //        WEST: Tile = 000209, Process = 000000, Comm = put
(PID.TID 0000.0001) //                bi = 000001, bj = 000014
(PID.TID 0000.0001) //        EAST: Tile = 000211, Process = 000000, Comm = put
(PID.TID 0000.0001) //                bi = 000003, bj = 000014
(PID.TID 0000.0001) //       SOUTH: Tile = 000194, Process = 000000, Comm = put
(PID.TID 0000.0001) //                bi = 000002, bj = 000013
(PID.TID 0000.0001) //       NORTH: Tile = 000226, Process = 000000, Comm = put
(PID.TID 0000.0001) //                bi = 000002, bj = 000015
(PID.TID 0000.0001) // Tile number: 000211 (process no. = 000000)
(PID.TID 0000.0001) //        WEST: Tile = 000210, Process = 000000, Comm = put
(PID.TID 0000.0001) //                bi = 000002, bj = 000014
(PID.TID 0000.0001) //        EAST: Tile = 000212, Process = 000000, Comm = put
(PID.TID 0000.0001) //                bi = 000004, bj = 000014
(PID.TID 0000.0001) //       SOUTH: Tile = 000195, Process = 000000, Comm = put
(PID.TID 0000.0001) //                bi = 000003, bj = 000013
(PID.TID 0000.0001) //       NORTH: Tile = 000227, Process = 000000, Comm = put
(PID.TID 0000.0001) //                bi = 000003, bj = 000015
(PID.TID 0000.0001) // Tile number: 000212 (process no. = 000000)
(PID.TID 0000.0001) //        WEST: Tile = 000211, Process = 000000, Comm = put
(PID.TID 0000.0001) //                bi = 000003, bj = 000014
(PID.TID 0000.0001) //        EAST: Tile = 000213, Process = 000000, Comm = put
(PID.TID 0000.0001) //                bi = 000005, bj = 000014
(PID.TID 0000.0001) //       SOUTH: Tile = 000196, Process = 000000, Comm = put
(PID.TID 0000.0001) //                bi = 000004, bj = 000013
(PID.TID 0000.0001) //       NORTH: Tile = 000228, Process = 000000, Comm = put
(PID.TID 0000.0001) //                bi = 000004, bj = 000015
(PID.TID 0000.0001) // Tile number: 000213 (process no. = 000000)
(PID.TID 0000.0001) //        WEST: Tile = 000212, Process = 000000, Comm = put
(PID.TID 0000.0001) //                bi = 000004, bj = 000014
(PID.TID 0000.0001) //        EAST: Tile = 000214, Process = 000000, Comm = put
(PID.TID 0000.0001) //                bi = 000006, bj = 000014
(PID.TID 0000.0001) //       SOUTH: Tile = 000197, Process = 000000, Comm = put
(PID.TID 0000.0001) //                bi = 000005, bj = 000013
(PID.TID 0000.0001) //       NORTH: Tile = 000229, Process = 000000, Comm = put
(PID.TID 0000.0001) //                bi = 000005, bj = 000015
(PID.TID 0000.0001) // Tile number: 000214 (process no. = 000000)
(PID.TID 0000.0001) //        WEST: Tile = 000213, Process = 000000, Comm = put
(PID.TID 0000.0001) //                bi = 000005, bj = 000014
(PID.TID 0000.0001) //        EAST: Tile = 000215, Process = 000000, Comm = put
(PID.TID 0000.0001) //                bi = 000007, bj = 000014
(PID.TID 0000.0001) //       SOUTH: Tile = 000198, Process = 000000, Comm = put
(PID.TID 0000.0001) //                bi = 000006, bj = 000013
(PID.TID 0000.0001) //       NORTH: Tile = 000230, Process = 000000, Comm = put
(PID.TID 0000.0001) //                bi = 000006, bj = 000015
(PID.TID 0000.0001) // Tile number: 000215 (process no. = 000000)
(PID.TID 0000.0001) //        WEST: Tile = 000214, Process = 000000, Comm = put
(PID.TID 0000.0001) //                bi = 000006, bj = 000014
(PID.TID 0000.0001) //        EAST: Tile = 000216, Process = 000000, Comm = put
(PID.TID 0000.0001) //                bi = 000008, bj = 000014
(PID.TID 0000.0001) //       SOUTH: Tile = 000199, Process = 000000, Comm = put
(PID.TID 0000.0001) //                bi = 000007, bj = 000013
(PID.TID 0000.0001) //       NORTH: Tile = 000231, Process = 000000, Comm = put
(PID.TID 0000.0001) //                bi = 000007, bj = 000015
(PID.TID 0000.0001) // Tile number: 000216 (process no. = 000000)
(PID.TID 0000.0001) //        WEST: Tile = 000215, Process = 000000, Comm = put
(PID.TID 0000.0001) //                bi = 000007, bj = 000014
(PID.TID 0000.0001) //        EAST: Tile = 000217, Process = 000000, Comm = put
(PID.TID 0000.0001) //                bi = 000009, bj = 000014
(PID.TID 0000.0001) //       SOUTH: Tile = 000200, Process = 000000, Comm = put
(PID.TID 0000.0001) //                bi = 000008, bj = 000013
(PID.TID 0000.0001) //       NORTH: Tile = 000232, Process = 000000, Comm = put
(PID.TID 0000.0001) //                bi = 000008, bj = 000015
(PID.TID 0000.0001) // Tile number: 000217 (process no. = 000000)
(PID.TID 0000.0001) //        WEST: Tile = 000216, Process = 000000, Comm = put
(PID.TID 0000.0001) //                bi = 000008, bj = 000014
(PID.TID 0000.0001) //        EAST: Tile = 000218, Process = 000000, Comm = put
(PID.TID 0000.0001) //                bi = 000010, bj = 000014
(PID.TID 0000.0001) //       SOUTH: Tile = 000201, Process = 000000, Comm = put
(PID.TID 0000.0001) //                bi = 000009, bj = 000013
(PID.TID 0000.0001) //       NORTH: Tile = 000233, Process = 000000, Comm = put
(PID.TID 0000.0001) //                bi = 000009, bj = 000015
(PID.TID 0000.0001) // Tile number: 000218 (process no. = 000000)
(PID.TID 0000.0001) //        WEST: Tile = 000217, Process = 000000, Comm = put
(PID.TID 0000.0001) //                bi = 000009, bj = 000014
(PID.TID 0000.0001) //        EAST: Tile = 000219, Process = 000000, Comm = put
(PID.TID 0000.0001) //                bi = 000011, bj = 000014
(PID.TID 0000.0001) //       SOUTH: Tile = 000202, Process = 000000, Comm = put
(PID.TID 0000.0001) //                bi = 000010, bj = 000013
(PID.TID 0000.0001) //       NORTH: Tile = 000234, Process = 000000, Comm = put
(PID.TID 0000.0001) //                bi = 000010, bj = 000015
(PID.TID 0000.0001) // Tile number: 000219 (process no. = 000000)
(PID.TID 0000.0001) //        WEST: Tile = 000218, Process = 000000, Comm = put
(PID.TID 0000.0001) //                bi = 000010, bj = 000014
(PID.TID 0000.0001) //        EAST: Tile = 000220, Process = 000000, Comm = put
(PID.TID 0000.0001) //                bi = 000012, bj = 000014
(PID.TID 0000.0001) //       SOUTH: Tile = 000203, Process = 000000, Comm = put
(PID.TID 0000.0001) //                bi = 000011, bj = 000013
(PID.TID 0000.0001) //       NORTH: Tile = 000235, Process = 000000, Comm = put
(PID.TID 0000.0001) //                bi = 000011, bj = 000015
(PID.TID 0000.0001) // Tile number: 000220 (process no. = 000000)
(PID.TID 0000.0001) //        WEST: Tile = 000219, Process = 000000, Comm = put
(PID.TID 0000.0001) //                bi = 000011, bj = 000014
(PID.TID 0000.0001) //        EAST: Tile = 000221, Process = 000000, Comm = put
(PID.TID 0000.0001) //                bi = 000013, bj = 000014
(PID.TID 0000.0001) //       SOUTH: Tile = 000204, Process = 000000, Comm = put
(PID.TID 0000.0001) //                bi = 000012, bj = 000013
(PID.TID 0000.0001) //       NORTH: Tile = 000236, Process = 000000, Comm = put
(PID.TID 0000.0001) //                bi = 000012, bj = 000015
(PID.TID 0000.0001) // Tile number: 000221 (process no. = 000000)
(PID.TID 0000.0001) //        WEST: Tile = 000220, Process = 000000, Comm = put
(PID.TID 0000.0001) //                bi = 000012, bj = 000014
(PID.TID 0000.0001) //        EAST: Tile = 000222, Process = 000000, Comm = put
(PID.TID 0000.0001) //                bi = 000014, bj = 000014
(PID.TID 0000.0001) //       SOUTH: Tile = 000205, Process = 000000, Comm = put
(PID.TID 0000.0001) //                bi = 000013, bj = 000013
(PID.TID 0000.0001) //       NORTH: Tile = 000237, Process = 000000, Comm = put
(PID.TID 0000.0001) //                bi = 000013, bj = 000015
(PID.TID 0000.0001) // Tile number: 000222 (process no. = 000000)
(PID.TID 0000.0001) //        WEST: Tile = 000221, Process = 000000, Comm = put
(PID.TID 0000.0001) //                bi = 000013, bj = 000014
(PID.TID 0000.0001) //        EAST: Tile = 000223, Process = 000000, Comm = put
(PID.TID 0000.0001) //                bi = 000015, bj = 000014
(PID.TID 0000.0001) //       SOUTH: Tile = 000206, Process = 000000, Comm = put
(PID.TID 0000.0001) //                bi = 000014, bj = 000013
(PID.TID 0000.0001) //       NORTH: Tile = 000238, Process = 000000, Comm = put
(PID.TID 0000.0001) //                bi = 000014, bj = 000015
(PID.TID 0000.0001) // Tile number: 000223 (process no. = 000000)
(PID.TID 0000.0001) //        WEST: Tile = 000222, Process = 000000, Comm = put
(PID.TID 0000.0001) //                bi = 000014, bj = 000014
(PID.TID 0000.0001) //        EAST: Tile = 000224, Process = 000000, Comm = put
(PID.TID 0000.0001) //                bi = 000016, bj = 000014
(PID.TID 0000.0001) //       SOUTH: Tile = 000207, Process = 000000, Comm = put
(PID.TID 0000.0001) //                bi = 000015, bj = 000013
(PID.TID 0000.0001) //       NORTH: Tile = 000239, Process = 000000, Comm = put
(PID.TID 0000.0001) //                bi = 000015, bj = 000015
(PID.TID 0000.0001) // Tile number: 000224 (process no. = 000000)
(PID.TID 0000.0001) //        WEST: Tile = 000223, Process = 000000, Comm = put
(PID.TID 0000.0001) //                bi = 000015, bj = 000014
(PID.TID 0000.0001) //        EAST: Tile = 000209, Process = 000000, Comm = put
(PID.TID 0000.0001) //                bi = 000001, bj = 000014
(PID.TID 0000.0001) //       SOUTH: Tile = 000208, Process = 000000, Comm = put
(PID.TID 0000.0001) //                bi = 000016, bj = 000013
(PID.TID 0000.0001) //       NORTH: Tile = 000240, Process = 000000, Comm = put
(PID.TID 0000.0001) //                bi = 000016, bj = 000015
(PID.TID 0000.0001) // Tile number: 000225 (process no. = 000000)
(PID.TID 0000.0001) //        WEST: Tile = 000240, Process = 000000, Comm = put
(PID.TID 0000.0001) //                bi = 000016, bj = 000015
(PID.TID 0000.0001) //        EAST: Tile = 000226, Process = 000000, Comm = put
(PID.TID 0000.0001) //                bi = 000002, bj = 000015
(PID.TID 0000.0001) //       SOUTH: Tile = 000209, Process = 000000, Comm = put
(PID.TID 0000.0001) //                bi = 000001, bj = 000014
(PID.TID 0000.0001) //       NORTH: Tile = 000241, Process = 000000, Comm = put
(PID.TID 0000.0001) //                bi = 000001, bj = 000016
(PID.TID 0000.0001) // Tile number: 000226 (process no. = 000000)
(PID.TID 0000.0001) //        WEST: Tile = 000225, Process = 000000, Comm = put
(PID.TID 0000.0001) //                bi = 000001, bj = 000015
(PID.TID 0000.0001) //        EAST: Tile = 000227, Process = 000000, Comm = put
(PID.TID 0000.0001) //                bi = 000003, bj = 000015
(PID.TID 0000.0001) //       SOUTH: Tile = 000210, Process = 000000, Comm = put
(PID.TID 0000.0001) //                bi = 000002, bj = 000014
(PID.TID 0000.0001) //       NORTH: Tile = 000242, Process = 000000, Comm = put
(PID.TID 0000.0001) //                bi = 000002, bj = 000016
(PID.TID 0000.0001) // Tile number: 000227 (process no. = 000000)
(PID.TID 0000.0001) //        WEST: Tile = 000226, Process = 000000, Comm = put
(PID.TID 0000.0001) //                bi = 000002, bj = 000015
(PID.TID 0000.0001) //        EAST: Tile = 000228, Process = 000000, Comm = put
(PID.TID 0000.0001) //                bi = 000004, bj = 000015
(PID.TID 0000.0001) //       SOUTH: Tile = 000211, Process = 000000, Comm = put
(PID.TID 0000.0001) //                bi = 000003, bj = 000014
(PID.TID 0000.0001) //       NORTH: Tile = 000243, Process = 000000, Comm = put
(PID.TID 0000.0001) //                bi = 000003, bj = 000016
(PID.TID 0000.0001) // Tile number: 000228 (process no. = 000000)
(PID.TID 0000.0001) //        WEST: Tile = 000227, Process = 000000, Comm = put
(PID.TID 0000.0001) //                bi = 000003, bj = 000015
(PID.TID 0000.0001) //        EAST: Tile = 000229, Process = 000000, Comm = put
(PID.TID 0000.0001) //                bi = 000005, bj = 000015
(PID.TID 0000.0001) //       SOUTH: Tile = 000212, Process = 000000, Comm = put
(PID.TID 0000.0001) //                bi = 000004, bj = 000014
(PID.TID 0000.0001) //       NORTH: Tile = 000244, Process = 000000, Comm = put
(PID.TID 0000.0001) //                bi = 000004, bj = 000016
(PID.TID 0000.0001) // Tile number: 000229 (process no. = 000000)
(PID.TID 0000.0001) //        WEST: Tile = 000228, Process = 000000, Comm = put
(PID.TID 0000.0001) //                bi = 000004, bj = 000015
(PID.TID 0000.0001) //        EAST: Tile = 000230, Process = 000000, Comm = put
(PID.TID 0000.0001) //                bi = 000006, bj = 000015
(PID.TID 0000.0001) //       SOUTH: Tile = 000213, Process = 000000, Comm = put
(PID.TID 0000.0001) //                bi = 000005, bj = 000014
(PID.TID 0000.0001) //       NORTH: Tile = 000245, Process = 000000, Comm = put
(PID.TID 0000.0001) //                bi = 000005, bj = 000016
(PID.TID 0000.0001) // Tile number: 000230 (process no. = 000000)
(PID.TID 0000.0001) //        WEST: Tile = 000229, Process = 000000, Comm = put
(PID.TID 0000.0001) //                bi = 000005, bj = 000015
(PID.TID 0000.0001) //        EAST: Tile = 000231, Process = 000000, Comm = put
(PID.TID 0000.0001) //                bi = 000007, bj = 000015
(PID.TID 0000.0001) //       SOUTH: Tile = 000214, Process = 000000, Comm = put
(PID.TID 0000.0001) //                bi = 000006, bj = 000014
(PID.TID 0000.0001) //       NORTH: Tile = 000246, Process = 000000, Comm = put
(PID.TID 0000.0001) //                bi = 000006, bj = 000016
(PID.TID 0000.0001) // Tile number: 000231 (process no. = 000000)
(PID.TID 0000.0001) //        WEST: Tile = 000230, Process = 000000, Comm = put
(PID.TID 0000.0001) //                bi = 000006, bj = 000015
(PID.TID 0000.0001) //        EAST: Tile = 000232, Process = 000000, Comm = put
(PID.TID 0000.0001) //                bi = 000008, bj = 000015
(PID.TID 0000.0001) //       SOUTH: Tile = 000215, Process = 000000, Comm = put
(PID.TID 0000.0001) //                bi = 000007, bj = 000014
(PID.TID 0000.0001) //       NORTH: Tile = 000247, Process = 000000, Comm = put
(PID.TID 0000.0001) //                bi = 000007, bj = 000016
(PID.TID 0000.0001) // Tile number: 000232 (process no. = 000000)
(PID.TID 0000.0001) //        WEST: Tile = 000231, Process = 000000, Comm = put
(PID.TID 0000.0001) //                bi = 000007, bj = 000015
(PID.TID 0000.0001) //        EAST: Tile = 000233, Process = 000000, Comm = put
(PID.TID 0000.0001) //                bi = 000009, bj = 000015
(PID.TID 0000.0001) //       SOUTH: Tile = 000216, Process = 000000, Comm = put
(PID.TID 0000.0001) //                bi = 000008, bj = 000014
(PID.TID 0000.0001) //       NORTH: Tile = 000248, Process = 000000, Comm = put
(PID.TID 0000.0001) //                bi = 000008, bj = 000016
(PID.TID 0000.0001) // Tile number: 000233 (process no. = 000000)
(PID.TID 0000.0001) //        WEST: Tile = 000232, Process = 000000, Comm = put
(PID.TID 0000.0001) //                bi = 000008, bj = 000015
(PID.TID 0000.0001) //        EAST: Tile = 000234, Process = 000000, Comm = put
(PID.TID 0000.0001) //                bi = 000010, bj = 000015
(PID.TID 0000.0001) //       SOUTH: Tile = 000217, Process = 000000, Comm = put
(PID.TID 0000.0001) //                bi = 000009, bj = 000014
(PID.TID 0000.0001) //       NORTH: Tile = 000249, Process = 000000, Comm = put
(PID.TID 0000.0001) //                bi = 000009, bj = 000016
(PID.TID 0000.0001) // Tile number: 000234 (process no. = 000000)
(PID.TID 0000.0001) //        WEST: Tile = 000233, Process = 000000, Comm = put
(PID.TID 0000.0001) //                bi = 000009, bj = 000015
(PID.TID 0000.0001) //        EAST: Tile = 000235, Process = 000000, Comm = put
(PID.TID 0000.0001) //                bi = 000011, bj = 000015
(PID.TID 0000.0001) //       SOUTH: Tile = 000218, Process = 000000, Comm = put
(PID.TID 0000.0001) //                bi = 000010, bj = 000014
(PID.TID 0000.0001) //       NORTH: Tile = 000250, Process = 000000, Comm = put
(PID.TID 0000.0001) //                bi = 000010, bj = 000016
(PID.TID 0000.0001) // Tile number: 000235 (process no. = 000000)
(PID.TID 0000.0001) //        WEST: Tile = 000234, Process = 000000, Comm = put
(PID.TID 0000.0001) //                bi = 000010, bj = 000015
(PID.TID 0000.0001) //        EAST: Tile = 000236, Process = 000000, Comm = put
(PID.TID 0000.0001) //                bi = 000012, bj = 000015
(PID.TID 0000.0001) //       SOUTH: Tile = 000219, Process = 000000, Comm = put
(PID.TID 0000.0001) //                bi = 000011, bj = 000014
(PID.TID 0000.0001) //       NORTH: Tile = 000251, Process = 000000, Comm = put
(PID.TID 0000.0001) //                bi = 000011, bj = 000016
(PID.TID 0000.0001) // Tile number: 000236 (process no. = 000000)
(PID.TID 0000.0001) //        WEST: Tile = 000235, Process = 000000, Comm = put
(PID.TID 0000.0001) //                bi = 000011, bj = 000015
(PID.TID 0000.0001) //        EAST: Tile = 000237, Process = 000000, Comm = put
(PID.TID 0000.0001) //                bi = 000013, bj = 000015
(PID.TID 0000.0001) //       SOUTH: Tile = 000220, Process = 000000, Comm = put
(PID.TID 0000.0001) //                bi = 000012, bj = 000014
(PID.TID 0000.0001) //       NORTH: Tile = 000252, Process = 000000, Comm = put
(PID.TID 0000.0001) //                bi = 000012, bj = 000016
(PID.TID 0000.0001) // Tile number: 000237 (process no. = 000000)
(PID.TID 0000.0001) //        WEST: Tile = 000236, Process = 000000, Comm = put
(PID.TID 0000.0001) //                bi = 000012, bj = 000015
(PID.TID 0000.0001) //        EAST: Tile = 000238, Process = 000000, Comm = put
(PID.TID 0000.0001) //                bi = 000014, bj = 000015
(PID.TID 0000.0001) //       SOUTH: Tile = 000221, Process = 000000, Comm = put
(PID.TID 0000.0001) //                bi = 000013, bj = 000014
(PID.TID 0000.0001) //       NORTH: Tile = 000253, Process = 000000, Comm = put
(PID.TID 0000.0001) //                bi = 000013, bj = 000016
(PID.TID 0000.0001) // Tile number: 000238 (process no. = 000000)
(PID.TID 0000.0001) //        WEST: Tile = 000237, Process = 000000, Comm = put
(PID.TID 0000.0001) //                bi = 000013, bj = 000015
(PID.TID 0000.0001) //        EAST: Tile = 000239, Process = 000000, Comm = put
(PID.TID 0000.0001) //                bi = 000015, bj = 000015
(PID.TID 0000.0001) //       SOUTH: Tile = 000222, Process = 000000, Comm = put
(PID.TID 0000.0001) //                bi = 000014, bj = 000014
(PID.TID 0000.0001) //       NORTH: Tile = 000254, Process = 000000, Comm = put
(PID.TID 0000.0001) //                bi = 000014, bj = 000016
(PID.TID 0000.0001) // Tile number: 000239 (process no. = 000000)
(PID.TID 0000.0001) //        WEST: Tile = 000238, Process = 000000, Comm = put
(PID.TID 0000.0001) //                bi = 000014, bj = 000015
(PID.TID 0000.0001) //        EAST: Tile = 000240, Process = 000000, Comm = put
(PID.TID 0000.0001) //                bi = 000016, bj = 000015
(PID.TID 0000.0001) //       SOUTH: Tile = 000223, Process = 000000, Comm = put
(PID.TID 0000.0001) //                bi = 000015, bj = 000014
(PID.TID 0000.0001) //       NORTH: Tile = 000255, Process = 000000, Comm = put
(PID.TID 0000.0001) //                bi = 000015, bj = 000016
(PID.TID 0000.0001) // Tile number: 000240 (process no. = 000000)
(PID.TID 0000.0001) //        WEST: Tile = 000239, Process = 000000, Comm = put
(PID.TID 0000.0001) //                bi = 000015, bj = 000015
(PID.TID 0000.0001) //        EAST: Tile = 000225, Process = 000000, Comm = put
(PID.TID 0000.0001) //                bi = 000001, bj = 000015
(PID.TID 0000.0001) //       SOUTH: Tile = 000224, Process = 000000, Comm = put
(PID.TID 0000.0001) //                bi = 000016, bj = 000014
(PID.TID 0000.0001) //       NORTH: Tile = 000256, Process = 000000, Comm = put
(PID.TID 0000.0001) //                bi = 000016, bj = 000016
(PID.TID 0000.0001) // Tile number: 000241 (process no. = 000000)
(PID.TID 0000.0001) //        WEST: Tile = 000256, Process = 000000, Comm = put
(PID.TID 0000.0001) //                bi = 000016, bj = 000016
(PID.TID 0000.0001) //        EAST: Tile = 000242, Process = 000000, Comm = put
(PID.TID 0000.0001) //                bi = 000002, bj = 000016
(PID.TID 0000.0001) //       SOUTH: Tile = 000225, Process = 000000, Comm = put
(PID.TID 0000.0001) //                bi = 000001, bj = 000015
(PID.TID 0000.0001) //       NORTH: Tile = 000001, Process = 000000, Comm = put
(PID.TID 0000.0001) //                bi = 000001, bj = 000001
(PID.TID 0000.0001) // Tile number: 000242 (process no. = 000000)
(PID.TID 0000.0001) //        WEST: Tile = 000241, Process = 000000, Comm = put
(PID.TID 0000.0001) //                bi = 000001, bj = 000016
(PID.TID 0000.0001) //        EAST: Tile = 000243, Process = 000000, Comm = put
(PID.TID 0000.0001) //                bi = 000003, bj = 000016
(PID.TID 0000.0001) //       SOUTH: Tile = 000226, Process = 000000, Comm = put
(PID.TID 0000.0001) //                bi = 000002, bj = 000015
(PID.TID 0000.0001) //       NORTH: Tile = 000002, Process = 000000, Comm = put
(PID.TID 0000.0001) //                bi = 000002, bj = 000001
(PID.TID 0000.0001) // Tile number: 000243 (process no. = 000000)
(PID.TID 0000.0001) //        WEST: Tile = 000242, Process = 000000, Comm = put
(PID.TID 0000.0001) //                bi = 000002, bj = 000016
(PID.TID 0000.0001) //        EAST: Tile = 000244, Process = 000000, Comm = put
(PID.TID 0000.0001) //                bi = 000004, bj = 000016
(PID.TID 0000.0001) //       SOUTH: Tile = 000227, Process = 000000, Comm = put
(PID.TID 0000.0001) //                bi = 000003, bj = 000015
(PID.TID 0000.0001) //       NORTH: Tile = 000003, Process = 000000, Comm = put
(PID.TID 0000.0001) //                bi = 000003, bj = 000001
(PID.TID 0000.0001) // Tile number: 000244 (process no. = 000000)
(PID.TID 0000.0001) //        WEST: Tile = 000243, Process = 000000, Comm = put
(PID.TID 0000.0001) //                bi = 000003, bj = 000016
(PID.TID 0000.0001) //        EAST: Tile = 000245, Process = 000000, Comm = put
(PID.TID 0000.0001) //                bi = 000005, bj = 000016
(PID.TID 0000.0001) //       SOUTH: Tile = 000228, Process = 000000, Comm = put
(PID.TID 0000.0001) //                bi = 000004, bj = 000015
(PID.TID 0000.0001) //       NORTH: Tile = 000004, Process = 000000, Comm = put
(PID.TID 0000.0001) //                bi = 000004, bj = 000001
(PID.TID 0000.0001) // Tile number: 000245 (process no. = 000000)
(PID.TID 0000.0001) //        WEST: Tile = 000244, Process = 000000, Comm = put
(PID.TID 0000.0001) //                bi = 000004, bj = 000016
(PID.TID 0000.0001) //        EAST: Tile = 000246, Process = 000000, Comm = put
(PID.TID 0000.0001) //                bi = 000006, bj = 000016
(PID.TID 0000.0001) //       SOUTH: Tile = 000229, Process = 000000, Comm = put
(PID.TID 0000.0001) //                bi = 000005, bj = 000015
(PID.TID 0000.0001) //       NORTH: Tile = 000005, Process = 000000, Comm = put
(PID.TID 0000.0001) //                bi = 000005, bj = 000001
(PID.TID 0000.0001) // Tile number: 000246 (process no. = 000000)
(PID.TID 0000.0001) //        WEST: Tile = 000245, Process = 000000, Comm = put
(PID.TID 0000.0001) //                bi = 000005, bj = 000016
(PID.TID 0000.0001) //        EAST: Tile = 000247, Process = 000000, Comm = put
(PID.TID 0000.0001) //                bi = 000007, bj = 000016
(PID.TID 0000.0001) //       SOUTH: Tile = 000230, Process = 000000, Comm = put
(PID.TID 0000.0001) //                bi = 000006, bj = 000015
(PID.TID 0000.0001) //       NORTH: Tile = 000006, Process = 000000, Comm = put
(PID.TID 0000.0001) //                bi = 000006, bj = 000001
(PID.TID 0000.0001) // Tile number: 000247 (process no. = 000000)
(PID.TID 0000.0001) //        WEST: Tile = 000246, Process = 000000, Comm = put
(PID.TID 0000.0001) //                bi = 000006, bj = 000016
(PID.TID 0000.0001) //        EAST: Tile = 000248, Process = 000000, Comm = put
(PID.TID 0000.0001) //                bi = 000008, bj = 000016
(PID.TID 0000.0001) //       SOUTH: Tile = 000231, Process = 000000, Comm = put
(PID.TID 0000.0001) //                bi = 000007, bj = 000015
(PID.TID 0000.0001) //       NORTH: Tile = 000007, Process = 000000, Comm = put
(PID.TID 0000.0001) //                bi = 000007, bj = 000001
(PID.TID 0000.0001) // Tile number: 000248 (process no. = 000000)
(PID.TID 0000.0001) //        WEST: Tile = 000247, Process = 000000, Comm = put
(PID.TID 0000.0001) //                bi = 000007, bj = 000016
(PID.TID 0000.0001) //        EAST: Tile = 000249, Process = 000000, Comm = put
(PID.TID 0000.0001) //                bi = 000009, bj = 000016
(PID.TID 0000.0001) //       SOUTH: Tile = 000232, Process = 000000, Comm = put
(PID.TID 0000.0001) //                bi = 000008, bj = 000015
(PID.TID 0000.0001) //       NORTH: Tile = 000008, Process = 000000, Comm = put
(PID.TID 0000.0001) //                bi = 000008, bj = 000001
(PID.TID 0000.0001) // Tile number: 000249 (process no. = 000000)
(PID.TID 0000.0001) //        WEST: Tile = 000248, Process = 000000, Comm = put
(PID.TID 0000.0001) //                bi = 000008, bj = 000016
(PID.TID 0000.0001) //        EAST: Tile = 000250, Process = 000000, Comm = put
(PID.TID 0000.0001) //                bi = 000010, bj = 000016
(PID.TID 0000.0001) //       SOUTH: Tile = 000233, Process = 000000, Comm = put
(PID.TID 0000.0001) //                bi = 000009, bj = 000015
(PID.TID 0000.0001) //       NORTH: Tile = 000009, Process = 000000, Comm = put
(PID.TID 0000.0001) //                bi = 000009, bj = 000001
(PID.TID 0000.0001) // Tile number: 000250 (process no. = 000000)
(PID.TID 0000.0001) //        WEST: Tile = 000249, Process = 000000, Comm = put
(PID.TID 0000.0001) //                bi = 000009, bj = 000016
(PID.TID 0000.0001) //        EAST: Tile = 000251, Process = 000000, Comm = put
(PID.TID 0000.0001) //                bi = 000011, bj = 000016
(PID.TID 0000.0001) //       SOUTH: Tile = 000234, Process = 000000, Comm = put
(PID.TID 0000.0001) //                bi = 000010, bj = 000015
(PID.TID 0000.0001) //       NORTH: Tile = 000010, Process = 000000, Comm = put
(PID.TID 0000.0001) //                bi = 000010, bj = 000001
(PID.TID 0000.0001) // Tile number: 000251 (process no. = 000000)
(PID.TID 0000.0001) //        WEST: Tile = 000250, Process = 000000, Comm = put
(PID.TID 0000.0001) //                bi = 000010, bj = 000016
(PID.TID 0000.0001) //        EAST: Tile = 000252, Process = 000000, Comm = put
(PID.TID 0000.0001) //                bi = 000012, bj = 000016
(PID.TID 0000.0001) //       SOUTH: Tile = 000235, Process = 000000, Comm = put
(PID.TID 0000.0001) //                bi = 000011, bj = 000015
(PID.TID 0000.0001) //       NORTH: Tile = 000011, Process = 000000, Comm = put
(PID.TID 0000.0001) //                bi = 000011, bj = 000001
(PID.TID 0000.0001) // Tile number: 000252 (process no. = 000000)
(PID.TID 0000.0001) //        WEST: Tile = 000251, Process = 000000, Comm = put
(PID.TID 0000.0001) //                bi = 000011, bj = 000016
(PID.TID 0000.0001) //        EAST: Tile = 000253, Process = 000000, Comm = put
(PID.TID 0000.0001) //                bi = 000013, bj = 000016
(PID.TID 0000.0001) //       SOUTH: Tile = 000236, Process = 000000, Comm = put
(PID.TID 0000.0001) //                bi = 000012, bj = 000015
(PID.TID 0000.0001) //       NORTH: Tile = 000012, Process = 000000, Comm = put
(PID.TID 0000.0001) //                bi = 000012, bj = 000001
(PID.TID 0000.0001) // Tile number: 000253 (process no. = 000000)
(PID.TID 0000.0001) //        WEST: Tile = 000252, Process = 000000, Comm = put
(PID.TID 0000.0001) //                bi = 000012, bj = 000016
(PID.TID 0000.0001) //        EAST: Tile = 000254, Process = 000000, Comm = put
(PID.TID 0000.0001) //                bi = 000014, bj = 000016
(PID.TID 0000.0001) //       SOUTH: Tile = 000237, Process = 000000, Comm = put
(PID.TID 0000.0001) //                bi = 000013, bj = 000015
(PID.TID 0000.0001) //       NORTH: Tile = 000013, Process = 000000, Comm = put
(PID.TID 0000.0001) //                bi = 000013, bj = 000001
(PID.TID 0000.0001) // Tile number: 000254 (process no. = 000000)
(PID.TID 0000.0001) //        WEST: Tile = 000253, Process = 000000, Comm = put
(PID.TID 0000.0001) //                bi = 000013, bj = 000016
(PID.TID 0000.0001) //        EAST: Tile = 000255, Process = 000000, Comm = put
(PID.TID 0000.0001) //                bi = 000015, bj = 000016
(PID.TID 0000.0001) //       SOUTH: Tile = 000238, Process = 000000, Comm = put
(PID.TID 0000.0001) //                bi = 000014, bj = 000015
(PID.TID 0000.0001) //       NORTH: Tile = 000014, Process = 000000, Comm = put
(PID.TID 0000.0001) //                bi = 000014, bj = 000001
(PID.TID 0000.0001) // Tile number: 000255 (process no. = 000000)
(PID.TID 0000.0001) //        WEST: Tile = 000254, Process = 000000, Comm = put
(PID.TID 0000.0001) //                bi = 000014, bj = 000016
(PID.TID 0000.0001) //        EAST: Tile = 000256, Process = 000000, Comm = put
(PID.TID 0000.0001) //                bi = 000016, bj = 000016
(PID.TID 0000.0001) //       SOUTH: Tile = 000239, Process = 000000, Comm = put
(PID.TID 0000.0001) //                bi = 000015, bj = 000015
(PID.TID 0000.0001) //       NORTH: Tile = 000015, Process = 000000, Comm = put
(PID.TID 0000.0001) //                bi = 000015, bj = 000001
(PID.TID 0000.0001) // Tile number: 000256 (process no. = 000000)
(PID.TID 0000.0001) //        WEST: Tile = 000255, Process = 000000, Comm = put
(PID.TID 0000.0001) //                bi = 000015, bj = 000016
(PID.TID 0000.0001) //        EAST: Tile = 000241, Process = 000000, Comm = put
(PID.TID 0000.0001) //                bi = 000001, bj = 000016
(PID.TID 0000.0001) //       SOUTH: Tile = 000240, Process = 000000, Comm = put
(PID.TID 0000.0001) //                bi = 000016, bj = 000015
(PID.TID 0000.0001) //       NORTH: Tile = 000016, Process = 000000, Comm = put
(PID.TID 0000.0001) //                bi = 000016, bj = 000001
(PID.TID 0000.0001) 
(PID.TID 0000.0001)  INI_PARMS: opening model parameter file "data"
(PID.TID 0000.0001)  OPEN_COPY_DATA_FILE: opening file data
(PID.TID 0000.0001) // =======================================================
(PID.TID 0000.0001) // Parameter file "data"
(PID.TID 0000.0001) // =======================================================
(PID.TID 0000.0001) ># Model parameters
(PID.TID 0000.0001) ># Continuous equation parameters
(PID.TID 0000.0001) > &PARM01
(PID.TID 0000.0001) > viscAh=100.,
(PID.TID 0000.0001) > viscAr=1.E-5,
(PID.TID 0000.0001) > no_slip_sides=.FALSE.,
(PID.TID 0000.0001) > no_slip_bottom=.FALSE.,
(PID.TID 0000.0001) > diffKhT=100.,
(PID.TID 0000.0001) > diffKrT=1.E-5,
(PID.TID 0000.0001) > diffKhS=100.,
(PID.TID 0000.0001) > diffKrS=1.E-5,
(PID.TID 0000.0001) > ivdc_kappa=1.,
(PID.TID 0000.0001) > implicitDiffusion=.TRUE.,
(PID.TID 0000.0001) > eosType='LINEAR',
(PID.TID 0000.0001) > tAlpha=2.E-4,
(PID.TID 0000.0001) > sBeta=7.4E-4,
(PID.TID 0000.0001) > rhoNil=999.8,
(PID.TID 0000.0001) > gravity=9.81,
(PID.TID 0000.0001) > rigidLid=.FALSE.,
(PID.TID 0000.0001) > implicitFreeSurface=.TRUE.,
(PID.TID 0000.0001) > exactConserv=.TRUE.,
(PID.TID 0000.0001) > saltStepping=.TRUE.,
(PID.TID 0000.0001) > readBinaryPrec = 64,
(PID.TID 0000.0001) > writeBinaryPrec = 64,
(PID.TID 0000.0001) > tRef=16.6, 16.6, 16.6, 16.5, 16.5, 16.5, 16.5, 16.5, 16.5,
(PID.TID 0000.0001) >      16.5, 16.4, 16.4, 16.3, 16.1, 15.9, 15.7, 15.3,
(PID.TID 0000.0001) >      14.8, 14.2, 13.5, 12.6, 11.7, 11.0, 10.4, 9.7,
(PID.TID 0000.0001) >      9.2, 8.8, 8.4, 8.0, 7.5, 7.1, 6.7, 6.4,
(PID.TID 0000.0001) >      6.1, 5.8, 5.5, 5.2, 4.8, 4.5, 4.2,
(PID.TID 0000.0001) > sRef=33.6, 33.6, 33.6, 33.6, 33.6, 33.6, 33.6, 33.6, 33.6,
(PID.TID 0000.0001) >      33.6, 33.6, 33.6, 33.6, 33.6, 33.6, 33.6, 33.6,
(PID.TID 0000.0001) >      33.7, 33.7, 33.7, 33.8, 33.8, 33.8, 33.9, 33.9,
(PID.TID 0000.0001) >      34.0, 34.0, 34.1, 34.2, 34.2, 34.2, 34.2, 34.3,
(PID.TID 0000.0001) >      34.3, 34.3, 34.4, 34.4, 34.4, 34.4, 34.5,
(PID.TID 0000.0001) > f0=6.94E-4,
(PID.TID 0000.0001) ># globalFiles=.TRUE.,
(PID.TID 0000.0001) > useSingleCpuIO=.TRUE.,
(PID.TID 0000.0001) > /
(PID.TID 0000.0001) >
(PID.TID 0000.0001) ># Elliptic solver parameters
(PID.TID 0000.0001) > &PARM02
(PID.TID 0000.0001) > cg2dTargetResidual=1.E-7,
(PID.TID 0000.0001) > cg2dMaxIters=1000,
(PID.TID 0000.0001) > /
(PID.TID 0000.0001) >
(PID.TID 0000.0001) ># Time stepping parameters
(PID.TID 0000.0001) > &PARM03
(PID.TID 0000.0001) > startTime=0.,
(PID.TID 0000.0001) > endTime=72000.,,
(PID.TID 0000.0001) ># pickupSuff='ckptA',
(PID.TID 0000.0001) > nIter0=0,
(PID.TID 0000.0001) > deltaT=60.,
(PID.TID 0000.0001) > chkptFreq=43200.,
(PID.TID 0000.0001) > dumpFreq=1200.,
(PID.TID 0000.0001) > monitorFreq=1200.,
(PID.TID 0000.0001) > monitorSelect=2,
(PID.TID 0000.0001) > periodicExternalForcing=.TRUE.,
(PID.TID 0000.0001) > externForcingPeriod=1200.,
(PID.TID 0000.0001) > externForcingCycle=72000,
(PID.TID 0000.0001) > /
(PID.TID 0000.0001) >
(PID.TID 0000.0001) ># Gridding parameters
(PID.TID 0000.0001) > &PARM04
(PID.TID 0000.0001) ># usingSphericalPolarGrid=.TRUE.,
(PID.TID 0000.0001) > usingCartesianGrid=.TRUE.,
(PID.TID 0000.0001) > xgOrigin=-843E3,
(PID.TID 0000.0001) > ygOrigin=-502E3,
(PID.TID 0000.0001) > delR=2.0, 2.2, 2.4, 2.7, 3.0, 3.3, 3.6, 4.0, 4.4,
(PID.TID 0000.0001) >      4.9, 5.4, 6.0, 6.6, 7.3, 8.0, 8.9, 9.8,
(PID.TID 0000.0001) >      10.8, 12.0, 13.2, 14.6, 16.1, 17.8, 19.7, 21.7,
(PID.TID 0000.0001) >      24.0, 26.5, 29.3, 32.3, 35.7, 39.4, 43.6, 48.1,
(PID.TID 0000.0001) >      53.1, 58.7, 64.8, 71.6, 79.1, 87.1, 96.3,
(PID.TID 0000.0001) > delYFile = '../input/nobahia_01_expand_dy.bin',
(PID.TID 0000.0001) > delXFile = '../input/nobahia_01_expand_dx.bin',
(PID.TID 0000.0001) > /
(PID.TID 0000.0001) >
(PID.TID 0000.0001) > &PARM05
(PID.TID 0000.0001) > bathyFile='../input/nobahia_01_expand_bat.bin',
(PID.TID 0000.0001) > meridWindFile='../input/merid_halfgauss2p5hr_272x320.bin',
(PID.TID 0000.0001) > hydrogThetaFile='../input/feb_temp_40zlev_272x320.bin',
(PID.TID 0000.0001) > hydrogSaltFile='../input/feb_salt_40zlev_272x320.bin',
(PID.TID 0000.0001) > /
(PID.TID 0000.0001) >
(PID.TID 0000.0001) 
(PID.TID 0000.0001)  INI_PARMS ; starts to read PARM01
(PID.TID 0000.0001)  INI_PARMS ; read PARM01 : OK
(PID.TID 0000.0001)  INI_PARMS ; starts to read PARM02
(PID.TID 0000.0001)  INI_PARMS ; read PARM02 : OK
(PID.TID 0000.0001)  INI_PARMS ; starts to read PARM03
(PID.TID 0000.0001)  INI_PARMS ; read PARM03 : OK
(PID.TID 0000.0001)  INI_PARMS ; starts to read PARM04
(PID.TID 0000.0001)  INI_PARMS ; read PARM04 : OK
(PID.TID 0000.0001)  INI_PARMS ; starts to read PARM05
(PID.TID 0000.0001)  INI_PARMS ; read PARM05 : OK
(PID.TID 0000.0001)  INI_PARMS: finished reading file "data"
(PID.TID 0000.0001)  PACKAGES_BOOT: opening data.pkg
(PID.TID 0000.0001)  OPEN_COPY_DATA_FILE: opening file data.pkg
(PID.TID 0000.0001) // =======================================================
(PID.TID 0000.0001) // Parameter file "data.pkg"
(PID.TID 0000.0001) // =======================================================
(PID.TID 0000.0001) ># Packages (lines beginning "#" are comments)
(PID.TID 0000.0001) > &PACKAGES
(PID.TID 0000.0001) > useMNC=.TRUE.,
(PID.TID 0000.0001) > useDiagnostics=.FALSE.,
(PID.TID 0000.0001) > useOBCS=.TRUE.,
(PID.TID 0000.0001) > /
(PID.TID 0000.0001) 
(PID.TID 0000.0001)  PACKAGES_BOOT: finished reading data.pkg
(PID.TID 0000.0001)  PACKAGES_BOOT: On/Off package Summary
 --------  pkgs with a standard "usePKG" On/Off switch in "data.pkg":  --------
 pkg/obcs                 compiled   and   used ( useOBCS                  = T )
 pkg/mnc                  compiled   and   used ( useMNC                   = T )
 -------- pkgs without standard "usePKG" On/Off switch in "data.pkg":  --------
 pkg/generic_advdiff      compiled   and   used ( useGAD                   = T )
 pkg/mom_common           compiled   and   used ( momStepping              = T )
 pkg/mom_vecinv           compiled but not used ( +vectorInvariantMomentum = F )
 pkg/mom_fluxform         compiled   and   used ( & not vectorInvariantMom = T )
 pkg/monitor              compiled   and   used ( monitorFreq > 0.         = T )
 pkg/debug                compiled but not used ( debugMode                = F )
 pkg/rw                   compiled   and   used
 pkg/mdsio                compiled   and   used
(PID.TID 0000.0001)  PACKAGES_BOOT: End of package Summary
(PID.TID 0000.0001) 
(PID.TID 0000.0001)  MNC_READPARMS: opening file 'data.mnc'
(PID.TID 0000.0001)  OPEN_COPY_DATA_FILE: opening file data.mnc
(PID.TID 0000.0001) // =======================================================
(PID.TID 0000.0001) // Parameter file "data.mnc"
(PID.TID 0000.0001) // =======================================================
(PID.TID 0000.0001) ># Example "data.mnc" file
(PID.TID 0000.0001) ># Lines beginning "#" are comments
(PID.TID 0000.0001) > &MNC_01
(PID.TID 0000.0001) ># mnc_echo_gvtypes=.FALSE.,
(PID.TID 0000.0001) ># mnc_use_indir=.FALSE.,
(PID.TID 0000.0001) > mnc_use_outdir=.TRUE.,
(PID.TID 0000.0001) >
(PID.TID 0000.0001) >mnc_outdir_str='mnc_',
(PID.TID 0000.0001) >#mnc_outdir_date=.TRUE.,
(PID.TID 0000.0001) > monitor_mnc=.FALSE.,
(PID.TID 0000.0001) >#snapshot_mnc=.FALSE.,
(PID.TID 0000.0001) >#timeave_mnc=.FALSE.,
(PID.TID 0000.0001) > pickup_read_mnc=.FALSE.,
(PID.TID 0000.0001) > pickup_write_mnc=.FALSE.,
(PID.TID 0000.0001) > /
(PID.TID 0000.0001) ># Note: Some systems use / as the
(PID.TID 0000.0001) ># namelist terminator. Other systems
(PID.TID 0000.0001) ># use a & character (as shown here).
(PID.TID 0000.0001) 
(PID.TID 0000.0001)  MNC_READPARMS: finished reading data.mnc
(PID.TID 0000.0001)  OBCS_READPARMS: opening data.obcs
(PID.TID 0000.0001)  OPEN_COPY_DATA_FILE: opening file data.obcs
(PID.TID 0000.0001) // =======================================================
(PID.TID 0000.0001) // Parameter file "data.obcs"
(PID.TID 0000.0001) // =======================================================
(PID.TID 0000.0001) ># Open-boundaries
(PID.TID 0000.0001) > &OBCS_PARM01
(PID.TID 0000.0001) > OB_Jsouth = 272*1,
(PID.TID 0000.0001) > OB_Jnorth = 272*0,
(PID.TID 0000.0001) > useOrlanskiSouth=.TRUE.,
(PID.TID 0000.0001) > useOBCSsponge=.FALSE.,
(PID.TID 0000.0001) > useLinearSponge=.FALSE.,
(PID.TID 0000.0001) > OBCSsponge_Salt=.FALSE.,
(PID.TID 0000.0001) > OBCSsponge_Theta=.FALSE.,
(PID.TID 0000.0001) > useOBCSbalance=.TRUE.,
(PID.TID 0000.0001) > useOBCSprescribe=.FALSE.,
(PID.TID 0000.0001) > OBCS_balanceFacS=1.,
(PID.TID 0000.0001) > OBCS_monitorFreq=1200.,
(PID.TID 0000.0001) > /
(PID.TID 0000.0001) >
(PID.TID 0000.0001) > &OBCS_PARM02
(PID.TID 0000.0001) > cvelTimeScale=2000.0,
(PID.TID 0000.0001) > CMAX=1.0,
(PID.TID 0000.0001) > /
(PID.TID 0000.0001) >
(PID.TID 0000.0001) > &OBCS_PARM03
(PID.TID 0000.0001) > spongeThickness=12,
(PID.TID 0000.0001) > Urelaxobcsinner=600.E0,
(PID.TID 0000.0001) > Vrelaxobcsinner=600.E0,
(PID.TID 0000.0001) > Urelaxobcsbound=90.E0,
(PID.TID 0000.0001) > Vrelaxobcsbound=90.E0,
(PID.TID 0000.0001) > /
(PID.TID 0000.0001) 
(PID.TID 0000.0001)  OBCS_READPARMS: finished reading data.obcs
(PID.TID 0000.0001)  OB_indexUnset = /* unset OB index value (i.e. no OB) */
(PID.TID 0000.0001)                       0
(PID.TID 0000.0001)     ;
(PID.TID 0000.0001)  Northern OB global indices : OB_Jnorth =
(PID.TID 0000.0001)   272 @        0                            /* I =  1:272 */
(PID.TID 0000.0001)  Southern OB global indices : OB_Jsouth =
(PID.TID 0000.0001)   272 @        1                            /* I =  1:272 */
(PID.TID 0000.0001)  Eastern  OB global indices : OB_Ieast =
(PID.TID 0000.0001)   320 @        0                            /* J =  1:320 */
(PID.TID 0000.0001)  Western  OB global indices : OB_Iwest =
(PID.TID 0000.0001)   320 @        0                            /* J =  1:320 */
(PID.TID 0000.0001) 
(PID.TID 0000.0001) SET_PARMS: done
(PID.TID 0000.0001)  MDS_READVEC_LOC: open file: ../input/nobahia_01_expand_dx.bin
(PID.TID 0000.0001) S/R LOAD_GRID_SPACING: delX loaded from file: ../input/nobahia_01_expand_dx.bin
(PID.TID 0000.0001)  MDS_READVEC_LOC: open file: ../input/nobahia_01_expand_dy.bin
(PID.TID 0000.0001) S/R LOAD_GRID_SPACING: delY loaded from file: ../input/nobahia_01_expand_dy.bin
(PID.TID 0000.0001) Enter INI_VERTICAL_GRID: setInterFDr=    T ; setCenterDr=    F
(PID.TID 0000.0001) %MON XC_max                       =   8.2200000000000E+05
(PID.TID 0000.0001) %MON XC_min                       =  -8.1000000000000E+05
(PID.TID 0000.0001) %MON XC_mean                      =  -2.3878676470588E+04
(PID.TID 0000.0001) %MON XC_sd                        =   2.1449438974776E+05
(PID.TID 0000.0001) %MON XG_max                       =   7.8900000000000E+05
(PID.TID 0000.0001) %MON XG_min                       =  -8.4300000000000E+05
(PID.TID 0000.0001) %MON XG_mean                      =  -2.7000000000000E+04
(PID.TID 0000.0001) %MON XG_sd                        =   2.1416018749841E+05
(PID.TID 0000.0001) %MON DXC_max                      =   6.6000000000000E+04
(PID.TID 0000.0001) %MON DXC_min                      =   2.0042000000000E+03
(PID.TID 0000.0001) %MON DXC_mean                     =   6.2426470588235E+03
(PID.TID 0000.0001) %MON DXC_sd                       =   1.3137284466326E+04
(PID.TID 0000.0001) %MON DXF_max                      =   6.6000000000000E+04
(PID.TID 0000.0001) %MON DXF_min                      =   2.0000000000000E+03
(PID.TID 0000.0001) %MON DXF_mean                     =   6.2426470588235E+03
(PID.TID 0000.0001) %MON DXF_sd                       =   1.3155182686526E+04
(PID.TID 0000.0001) %MON DXG_max                      =   6.6000000000000E+04
(PID.TID 0000.0001) %MON DXG_min                      =   2.0000000000000E+03
(PID.TID 0000.0001) %MON DXG_mean                     =   6.2426470588235E+03
(PID.TID 0000.0001) %MON DXG_sd                       =   1.3155182686526E+04
(PID.TID 0000.0001) %MON DXV_max                      =   6.6000000000000E+04
(PID.TID 0000.0001) %MON DXV_min                      =   2.0042000000000E+03
(PID.TID 0000.0001) %MON DXV_mean                     =   6.2426470588235E+03
(PID.TID 0000.0001) %MON DXV_sd                       =   1.3137284466326E+04
(PID.TID 0000.0001) %MON YC_max                       =   1.4000470000000E+05
(PID.TID 0000.0001) %MON YC_min                       =  -5.0099530000000E+05
(PID.TID 0000.0001) %MON YC_mean                      =  -1.8049529781250E+05
(PID.TID 0000.0001) %MON YC_sd                        =   1.8561992099325E+05
(PID.TID 0000.0001) %MON YG_max                       =   1.3900000000000E+05
(PID.TID 0000.0001) %MON YG_min                       =  -5.0200000000000E+05
(PID.TID 0000.0001) %MON YG_mean                      =  -1.8150000000000E+05
(PID.TID 0000.0001) %MON YG_sd                        =   1.8561992100509E+05
(PID.TID 0000.0001) %MON DYC_max                      =   2.0094500000000E+03
(PID.TID 0000.0001) %MON DYC_min                      =   2.0094000000000E+03
(PID.TID 0000.0001) %MON DYC_mean                     =   2.0094043750000E+03
(PID.TID 0000.0001) %MON DYC_sd                       =   1.4128318194110E-02
(PID.TID 0000.0001) %MON DYF_max                      =   2.0095000000000E+03
(PID.TID 0000.0001) %MON DYF_min                      =   2.0094000000000E+03
(PID.TID 0000.0001) %MON DYF_mean                     =   2.0094043750000E+03
(PID.TID 0000.0001) %MON DYF_sd                       =   2.0453835214946E-02
(PID.TID 0000.0001) %MON DYG_max                      =   2.0095000000000E+03
(PID.TID 0000.0001) %MON DYG_min                      =   2.0094000000000E+03
(PID.TID 0000.0001) %MON DYG_mean                     =   2.0094043750000E+03
(PID.TID 0000.0001) %MON DYG_sd                       =   2.0453835214946E-02
(PID.TID 0000.0001) %MON DYU_max                      =   2.0094500000000E+03
(PID.TID 0000.0001) %MON DYU_min                      =   2.0094000000000E+03
(PID.TID 0000.0001) %MON DYU_mean                     =   2.0094043750000E+03
(PID.TID 0000.0001) %MON DYU_sd                       =   1.4128318194110E-02
(PID.TID 0000.0001) %MON RA_max                       =   1.3262700000000E+08
(PID.TID 0000.0001) %MON RA_min                       =   4.0187999999999E+06
(PID.TID 0000.0001) %MON RA_mean                      =   1.2544002311581E+07
(PID.TID 0000.0001) %MON RA_sd                        =   2.6434081645907E+07
(PID.TID 0000.0001) %MON RAW_max                      =   1.3262700000000E+08
(PID.TID 0000.0001) %MON RAW_min                      =   4.0272394799999E+06
(PID.TID 0000.0001) %MON RAW_mean                     =   1.2544002311581E+07
(PID.TID 0000.0001) %MON RAW_sd                       =   2.6398116883932E+07
(PID.TID 0000.0001) %MON RAS_max                      =   1.3262370000000E+08
(PID.TID 0000.0001) %MON RAS_min                      =   4.0188000000000E+06
(PID.TID 0000.0001) %MON RAS_mean                     =   1.2544002311581E+07
(PID.TID 0000.0001) %MON RAS_sd                       =   2.6434081645030E+07
(PID.TID 0000.0001) %MON RAZ_max                      =   1.3262370000000E+08
(PID.TID 0000.0001) %MON RAZ_min                      =   4.0272394800000E+06
(PID.TID 0000.0001) %MON RAZ_mean                     =   1.2544002311581E+07
(PID.TID 0000.0001) %MON RAZ_sd                       =   2.6398116883056E+07
(PID.TID 0000.0001) %MON AngleCS_max                  =   1.0000000000000E+00
(PID.TID 0000.0001) %MON AngleCS_min                  =   1.0000000000000E+00
(PID.TID 0000.0001) %MON AngleCS_mean                 =   1.0000000000000E+00
(PID.TID 0000.0001) %MON AngleCS_sd                   =   0.0000000000000E+00
(PID.TID 0000.0001) %MON AngleSN_max                  =   0.0000000000000E+00
(PID.TID 0000.0001) %MON AngleSN_min                  =   0.0000000000000E+00
(PID.TID 0000.0001) %MON AngleSN_mean                 =   0.0000000000000E+00
(PID.TID 0000.0001) %MON AngleSN_sd                   =   0.0000000000000E+00
(PID.TID 0000.0001)  MDS_READ_FIELD: opening global file: ../input/nobahia_01_expand_bat.bin
(PID.TID 0000.0001) // =======================================================
(PID.TID 0000.0001) // Field Model R_low (ini_masks_etc)
(PID.TID 0000.0001) // CMIN =         -1.000000000000000E+03
(PID.TID 0000.0001) // CMAX =         -4.200000000000000E+00
(PID.TID 0000.0001) // CINT =          3.688148148148148E+01
(PID.TID 0000.0001) // SYMBOLS (CMIN->CMAX): -abcdefghijklmnopqrstuvwxyz+
(PID.TID 0000.0001) //                  0.0: .
(PID.TID 0000.0001) // RANGE I (Lo:Hi:Step):(    -2:   275:     1)
(PID.TID 0000.0001) // RANGE J (Lo:Hi:Step):(   323:    -2:    -1)
(PID.TID 0000.0001) // RANGE K (Lo:Hi:Step):(   1:   1:   1)
(PID.TID 0000.0001) // =======================================================
(PID.TID 0000.0001) K =   1
(PID.TID 0000.0001) //                I=7       I=17      I=21      I=31      I=35      I=45      I=49      I=59      I=69      I=73      I=83      I=87      I=97      I=101     I=111     I=121     I=125     I=135     I=139     I=149     I=153     I=163     I=173     I=177     I=187     I=191     I=201     I=205     I=215     I=219     I=229     I=239     I=243     I=253     I=257     I=267
(PID.TID 0000.0001) // |--J--|210123456|890123456|890567890|234567890|234567234|678901234|678901234|012345678|012345678|016789012|456789012|456783456|890123456|890123450|234567890|234567890|278901234|678901234|678945678|012345678|012345612|456789012|456789012|890123456|890123456|890567890|234567890|234567234|678901234|678901234|012345678|012345678|016789012|456789012|456783456|890123456|89012345
(PID.TID 0000.0001) //    323 --------------------------------------------------------------------------------------------------------------------------------------------------------------------------------------------------------------------------------------------------------------------------------------------------------------------------------------------------------------------------------
(PID.TID 0000.0001) //    322 --------------------------------------------------------------------------------------------------------------------------------------------------------------------------------------------------------------------------------------------------------------------------------------------------------------------------------------------------------------------------------
(PID.TID 0000.0001) //    321 --------------------------------------------------------------------------------------------------------------------------------------------------------------------------------------------------------------------------------------------------------------------------------------------------------------------------------------------------------------------------------
(PID.TID 0000.0001) //    320 ................................................................................................................................................................................................................................................................................................................................................................................
(PID.TID 0000.0001) //    319 ................................................................................................................................................................................................................................................................................................................................................................................
(PID.TID 0000.0001) //    318 ................................................................................................................................................................................................................................................................................................................................................................................
(PID.TID 0000.0001) //    317 ................................................................................................................................................................................................................................................................................................................................................................................
(PID.TID 0000.0001) //    316 ................................................................................................................................................................................................................................................................................................................................................................................
(PID.TID 0000.0001) //    315 ................................................................................................................................................................................................................................................................................................................................................................................
(PID.TID 0000.0001) //    314 ................................................................................................................................................................................................................................................................................................................................................................................
(PID.TID 0000.0001) //    313 ................................................................................................................................................................................................................................................................................................................................................................................
(PID.TID 0000.0001) //    312 ................................................................................................................................................................................................................................................................................................................................................................................
(PID.TID 0000.0001) //    311 ................................................................................................................................................................................................................................................................................................................................................................................
(PID.TID 0000.0001) //    310 ................................................................................................................................................................................................................................................................................................................................................................................
(PID.TID 0000.0001) //    309 ................................................................................................................................................................................................................................................................................................................................................................................
(PID.TID 0000.0001) //    308 ................................................................................................................................................................................................................................................................................................................................................................................
(PID.TID 0000.0001) //    307 ................................................................................................................................................................................................................................................................................................................................................................................
(PID.TID 0000.0001) //    306 ................................................................................................................................................................................................................................................................................................................................................................................
(PID.TID 0000.0001) //    305 ................................................................................................................................................................................................................................................................................................................................................................................
(PID.TID 0000.0001) //    304 ................................................................................................................................................................................................................................................................................................................................................................................
(PID.TID 0000.0001) //    303 ................................................................................................................................................................................................................................................................................................................................................................................
(PID.TID 0000.0001) //    302 ................................................................................................................................................................................................................................................................................................................................................................................
(PID.TID 0000.0001) //    301 ................................................................................................................................................................................................................................................................................................................................................................................
(PID.TID 0000.0001) //    300 ................................................................................................................................................................................................................................................................................................................................................................................
(PID.TID 0000.0001) //    299 ................................................................................................................................................................................................................................................................................................................................................................................
(PID.TID 0000.0001) //    298 ................................................................................................................................................................................................................................................................................................................................................................................
(PID.TID 0000.0001) //    303 ................................................................................................................................................................................................................................................................................................................................................................................
(PID.TID 0000.0001) //    302 ................................................................................................................................................................................................................................................................................................................................................................................
(PID.TID 0000.0001) //    301 ................................................................................................................................................................................................................................................................................................................................................................................
(PID.TID 0000.0001) //    300 ................................................................................................................................................................................................................................................................................................................................................................................
(PID.TID 0000.0001) //    299 ................................................................................................................................................................................................................................................................................................................................................................................
(PID.TID 0000.0001) //    298 ................................................................................................................................................................................................................................................................................................................................................................................
(PID.TID 0000.0001) //    297 ................................................................................................................................................................................................................................................................................................................................................................................
(PID.TID 0000.0001) //    296 ................................................................................................................................................................................................................................................................................................................................................................................
(PID.TID 0000.0001) //    295 ................................................................................................................................................................................................................................................................................................................................................................................
(PID.TID 0000.0001) //    294 ................................................................................................................................................................................................................................................................................................................................................................................
(PID.TID 0000.0001) //    293 ................................................................................................................................................................................................................................................................................................................................................................................
(PID.TID 0000.0001) //    292 ................................................................................................................................................................................................................................................................................................................................................................................
(PID.TID 0000.0001) //    291 ................................................................................................................................................................................................................................................................................................................................................................................
(PID.TID 0000.0001) //    290 ................................................................................................................................................................................................................................................................................................................................................................................
(PID.TID 0000.0001) //    289 ................................................................................................................................................................................................................................................................................................................................................................................
(PID.TID 0000.0001) //    288 ................................................................................................................................................................................................................................................................................................................................................................................
(PID.TID 0000.0001) //    287 ................................................................................................................................................................................................................................................................................................................................................................................
(PID.TID 0000.0001) //    286 ................................................................................................................................................................................................................................................................................................................................................................................
(PID.TID 0000.0001) //    285 ................................................................................................................................................................................................................................................................................................................................................................................
(PID.TID 0000.0001) //    284 ................................................................................................................................................................................................................................................................................................................................................................................
(PID.TID 0000.0001) //    283 ................................................................................................................................................................................................................................................................................................................................................................................
(PID.TID 0000.0001) //    282 ................................................................................................................................................................................................................................................................................................................................................................................
(PID.TID 0000.0001) //    281 ................................................................................................................................................................................................................................................................................................................................................................................
(PID.TID 0000.0001) //    280 ................................................................................................................................................................................................................................................................................................................................................................................
(PID.TID 0000.0001) //    279 ................................................................................................................................................................................................................................................................................................................................................................................
(PID.TID 0000.0001) //    278 ................................................................................................................................................................................................................................................................................................................................................................................
(PID.TID 0000.0001) //    283 ................................................................................................................................................................................................................................................................................................................................................................................
(PID.TID 0000.0001) //    282 ................................................................................................................................................................................................................................................................................................................................................................................
(PID.TID 0000.0001) //    281 ................................................................................................................................................................................................................................................................................................................................................................................
(PID.TID 0000.0001) //    280 ................................................................................................................................................................................................................................................................................................................................................................................
(PID.TID 0000.0001) //    279 ................................................................................................................................................................................................................................................................................................................................................................................
(PID.TID 0000.0001) //    278 ................................................................................................................................................................................................................................................................................................................................................................................
(PID.TID 0000.0001) //    277 ................................................................................................................................................................................................................................................................................................................................................................................
(PID.TID 0000.0001) //    276 ................................................................................................................................................................................................................................................................................................................................................................................
(PID.TID 0000.0001) //    275 ................................................................................................................................................................................................................................................................................................................................................................................
(PID.TID 0000.0001) //    274 ................................................................................................................................................................................................................................................................................................................................................................................
(PID.TID 0000.0001) //    273 ................................................................................................................................................................................................................................................................................................................................................................................
(PID.TID 0000.0001) //    272 ................................................................................................................................................................................................................................................................................................................................................................................
(PID.TID 0000.0001) //    271 ................................................................................................................................................................................................................................................................................................................................................................................
(PID.TID 0000.0001) //    270 ................................................................................................................................................................................................................................................................................................................................................................................
(PID.TID 0000.0001) //    269 ................................................................................................................................................................................................................................................................................................................................................................................
(PID.TID 0000.0001) //    268 ................................................................................................................................................................................................................................................................................................................................................................................
(PID.TID 0000.0001) //    267 ................................................................................................................................................................................................................................................................................................................................................................................
(PID.TID 0000.0001) //    266 ................................................................................................................................................................................................................................................................................................................................................................................
(PID.TID 0000.0001) //    265 ................................................................................................................................................................................................................................................................................................................................................................................
(PID.TID 0000.0001) //    264 ................................................................................................................................................................................................................................................................................................................................................................................
(PID.TID 0000.0001) //    263 ................................................................................................................................................................................................................................................................................................................................................................................
(PID.TID 0000.0001) //    262 ................................................................................................................................................................................................................................................................................................................................................................................
(PID.TID 0000.0001) //    261 ................................................................................................................................................................................................................................................................................................................................................................................
(PID.TID 0000.0001) //    260 ................................................................................................................................................................................................................................................................................................................................................................................
(PID.TID 0000.0001) //    259 ................................................................................................................................................................................................................................................................................................................................................................................
(PID.TID 0000.0001) //    258 ................................................................................................................................................................................................................................................................................................................................................................................
(PID.TID 0000.0001) //    263 ................................................................................................................................................................................................................................................................................................................................................................................
(PID.TID 0000.0001) //    262 ................................................................................................................................................................................................................................................................................................................................................................................
(PID.TID 0000.0001) //    261 ................................................................................................................................................................................................................................................................................................................................................................................
(PID.TID 0000.0001) //    260 ................................................................................................................................................................................................................................................................................................................................................................................
(PID.TID 0000.0001) //    259 ................................................................................................................................................................................................................................................................................................................................................................................
(PID.TID 0000.0001) //    258 ................................................................................................................................................................................................................................................................................................................................................................................
(PID.TID 0000.0001) //    257 ................................................................................................................................................................................................................................................................................................................................................................................
(PID.TID 0000.0001) //    256 ................................................................................................................................................................................................................................................................................................................................................................................
(PID.TID 0000.0001) //    255 ................................................................................................................................................................................................................................................................................................................................................................................
(PID.TID 0000.0001) //    254 ++++++++++++++++++++++++++++++++++++++++++++++++++++++++++++++++++++++++++++++++++++++++++++++++++++++++++++++++++++++++++++++++++++++++++++++++++++++++++++++++++++++++++++++++++++++++++++++++++++++++++++++++++++++++++++++++++++++++++++++++++++++++++++++++++++++++++++++++++++++++++++++++++++++++++++++++++++++++++++++++++++++++++++++++++++++++++++++++++++++++++++++++
(PID.TID 0000.0001) //    253 ++++++++++++++++++++++++++++++++++++++++++++++++++++++++++++++++++++++++++++++++++++++++++++++++++++++++++++++++++++++++++++++++++++++++++++++++++++++++++++++++++++++++++++++++++++++++++++++++++++++++++++++++++++++++++++++++++++++++++++++++++++++++++++++++++++++++++++++++++++++++++++++++++++++++++++++++++++++++++++++++++++++++++++++++++++++++++++++++++++++++++++++++
(PID.TID 0000.0001) //    252 zzzzzzzzzzzzzzzzzzzzzzzzzzzzzzzzzzzzzzzzzzzzzzzzzzzzzzzzzzzzzzzzzzzzzzzzzzzzzzzzzzzzzzzzzzzzzzzzzzzzzzzzzzzzzzzzzzzzzzzzzzzzzzzzzzzzzzzzzzzzzzzzzzzzzzzzzzzzzzzzzzzzzzzzzzzzzzzzzzzzzzzzzzzzzzzzzzzzzzzzzzzzzzzzzzzzzzzzzzzzzzzzzzzzzzzzzzzzzzzzzzzzzzzzzzzzzzzzzzzzzzzzzzzzzzzzzzzzzzzzzzzzzzzzzzzzzzzzzzzzzzzzzzzzzzzzzzzzzzzzzzzzzzzzzzzzzzzzzzzzzzzzzzzzzzzzzzzzzzzzzzzzzzzz
(PID.TID 0000.0001) //    251 yyyyyyyyyyyyyyyyyyyyyyyyyyyyyyyyyyyyyyyyyyyyyyyyyyyyyyyyyyyyyyyyyyyyyyyyyyyyyyyyyyyyyyyyyyyyyyyyyyyyyyyyyyyyyyyyyyyyyyyyyyyyyyyyyyyyyyyyyyyyyyyyyyyyyyyyyyyyyyyyyyyyyyyyyyyyyyyyyyyyyyyyyyyyyyyyyyyyyyyyyyyyyyyyyyyyyyyyyyyyyyyyyyyyyyyyyyyyyyyyyyyyyyyyyyyyyyyyyyyyyyyyyyyyyyyyyyyyyyyyyyyyyyyyyyyyyyyyyyyyyyyyyyyyyyyyyyyyyyyyyyyyyyyyyyyyyyyyyyyyyyyyyyyyyyyyyyyyyyyyyyyyyyyy
(PID.TID 0000.0001) //    250 wwwwwwwwwwwwwwwwwwwwwwwwwwwwwwwwwwwwwwwwwwwwwwwwwwwwwwwwwwwwwwwwwwwwwwwwwwwwwwwwwwwwwwwwwwwwwwwwwwwwwwwwwwwwwwwwwwwwwwwwwwwwwwwwwwwwwwwwwwwwwwwwwwwwwwwwwwwwwwwwwwwwwwwwwwwwwwwwwwwwwwwwwwwwwwwwwwwwwwwwwwwwwwwwwwwwwwwwwwwwwwwwwwwwwwwwwwwwwwwwwwwwwwwwwwwwwwwwwwwwwwwwwwwwwwwwwwwwwwwwwwwwwwwwwwwwwwwwwwwwwwwwwwwwwwwwwwwwwwwwwwwwwwwwwwwwwwwwwwwwwwwwwwwwwwwwwwwwwwwwwwwwwwww
(PID.TID 0000.0001) //    249 uuuuuuuuuuuuuuuuuuuuuuuuuuuuuuuuuuuuuuuuuuuuuuuuuuuuuuuuuuuuuuuuuuuuuuuuuuuuuuuuuuuuuuuuuuuuuuuuuuuuuuuuuuuuuuuuuuuuuuuuuuuuuuuuuuuuuuuuuuuuuuuuuuuuuuuuuuuuuuuuuuuuuuuuuuuuuuuuuuuuuuuuuuuuuuuuuuuuuuuuuuuuuuuuuuuuuuuuuuuuuuuuuuuuuuuuuuuuuuuuuuuuuuuuuuuuuuuuuuuuuuuuuuuuuuuuuuuuuuuuuuuuuuuuuuuuuuuuuuuuuuuuuuuuuuuuuuuuuuuuuuuuuuuuuuuuuuuuuuuuuuuuuuuuuuuuuuuuuuuuuuuuuuuu
(PID.TID 0000.0001) //    248 ssssssssssssssssssssssssssssssssssssssssssssssssssssssssssssssssssssssssssssssssssssssssssssssssssssssssssssssssssssssssssssssssssssssssssssssssssssssssssssssssssssssssssssssssssssssssssssssssssssssssssssssssssssssssssssssssssssssssssssssssssssssssssssssssssssssssssssssssssssssssssssssssssssssssssssssssssssssssssssssssssssssssssssssssssssssssssssssssssssssssssssssss
(PID.TID 0000.0001) //    247 qqqqqqqqqqqqqqqqqqqqqqqqqqqqqqqqqqqqqqqqqqqqqqqqqqqqqqqqqqqqqqqqqqqqqqqqqqqqqqqqqqqqqqqqqqqqqqqqqqqqqqqqqqqqqqqqqqqqqqqqqqqqqqqqqqqqqqqqqqqqqqqqqqqqqqqqqqqqqqqqqqqqqqqqqqqqqqqqqqqqqqqqqqqqqqqqqqqqqqqqqqqqqqqqqqqqqqqqqqqqqqqqqqqqqqqqqqqqqqqqqqqqqqqqqqqqqqqqqqqqqqqqqqqqqqqqqqqqqqqqqqqqqqqqqqqqqqqqqqqqqqqqqqqqqqqqqqqqqqqqqqqqqqqqqqqqqqqqqqqqqqqqqqqqqqqqqqqqqqqqqqqqqqqq
(PID.TID 0000.0001) //    246 pppppppppppppppppppppppppppppppppppppppppppppppppppppppppppppppppppppppppppppppppppppppppppppppppppppppppppppppppppppppppppppppppppppppppppppppppppppppppppppppppppppppppppppppppppppppppppppppppppppppppppppppppppppppppppppppppppppppppppppppppppppppppppppppppppppppppppppppppppppppppppppppppppppppppppppppppppppppppppppppppppppppppppppppppppppppppppppppppppppppppppppppp
(PID.TID 0000.0001) //    245 oooooooooooooooooooooooooooooooooooooooooooooooooooooooooooooooooooooooooooooooooooooooooooooooooooooooooooooooooooooooooooooooooooooooooooooooooooooooooooooooooooooooooooooooooooooooooooooooooooooooooooooooooooooooooooooooooooooooooooooooooooooooooooooooooooooooooooooooooooooooooooooooooooooooooooooooooooooooooooooooooooooooooooooooooooooooooooooooooooooooooooooooo
(PID.TID 0000.0001) //    244 nnnnnnnnnnnnnnnnnnnnnnnnnnnnnnnnnnnnnnnnnnnnnnnnnnnnnnnnnnnnnnnnnnnnnnnnnnnnnnnnnnnnnnnnnnnnnnnnnnnnnnnnnnnnnnnnnnnnnnnnnnnnnnnnnnnnnnnnnnnnnnnnnnnnnnnnnnnnnnnnnnnnnnnnnnnnnnnnnnnnnnnnnnnnnnnnnnnnnnnnnnnnnnnnnnnnnnnnnnnnnnnnnnnnnnnnnnnnnnnnnnnnnnnnnnnnnnnnnnnnnnnnnnnnnnnnnnnnnnnnnnnnnnnnnnnnnnnnnnnnnnnnnnnnnnnnnnnnnnnnnnnnnnnnnnnnnnnnnnnnnnnnnnnnnnnnnnnnnnnnnnnnnnnn
(PID.TID 0000.0001) //    243 llllllllllllllllllllllllllllllllllllllllllllllllllllllllllllllllllllllllllllllllllllllllllllllllllllllllllllllllllllllllllllllllllllllllllllllllllllllllllllllllllllllllllllllllllllllllllllllllllllllllllllllllllllllllllllllllllllllllllllllllllllllllllllllllllllllllllllllllllllllllllllllllllllllllllllllllllllllllllllllllllllllllllllllllllllllllllllllllllllllllllllllll
(PID.TID 0000.0001) //    242 kkkkkkkkkkkkkkkkkkkkkkkkkkkkkkkkkkkkkkkkkkkkkkkkkkkkkkkkkkkkkkkkkkkkkkkkkkkkkkkkkkkkkkkkkkkkkkkkkkkkkkkkkkkkkkkkkkkkkkkkkkkkkkkkkkkkkkkkkkkkkkkkkkkkkkkkkkkkkkkkkkkkkkkkkkkkkkkkkkkkkkkkkkkkkkkkkkkkkkkkkkkkkkkkkkkkkkkkkkkkkkkkkkkkkkkkkkkkkkkkkkkkkkkkkkkkkkkkkkkkkkkkkkkkkkkkkkkkkkkkkkkkkkkkkkkkkkkkkkkkkkkkkkkkkkkkkkkkkkkkkkkkkkkkkkkkkkkkkkkkkkkkkkkkkkkkkkkkkkkkkkkkkkkk
(PID.TID 0000.0001) //    241 iiiiiiiiiiiiiiiiiiiiiiiiiiiiiiiiiiiiiiiiiiiiiiiiiiiiiiiiiiiiiiiiiiiiiiiiiiiiiiiiiiiiiiiiiiiiiiiiiiiiiiiiiiiiiiiiiiiiiiiiiiiiiiiiiiiiiiiiiiiiiiiiiiiiiiiiiiiiiiiiiiiiiiiiiiiiiiiiiiiiiiiiiiiiiiiiiiiiiiiiiiiiiiiiiiiiiiiiiiiiiiiiiiiiiiiiiiiiiiiiiiiiiiiiiiiiiiiiiiiiiiiiiiiiiiiiiiiiiiiiiiiiiiiiiiiiiiiiiiiiiiiiiiiiiiiiiiiiiiiiiiiiiiiiiiiiiiiiiiiiiiiiiiiiiiiiiiiiiiiiiiiiiiii
(PID.TID 0000.0001) //    240 iiiiiiiiiiiiiiiiiiiiiiiiiiiiiiiiiiiiiiiiiiiiiiiiiiiiiiiiiiiiiiiiiiiiiiiiiiiiiiiiiiiiiiiiiiiiiiiiiiiiiiiiiiiiiiiiiiiiiiiiiiiiiiiiiiiiiiiiiiiiiiiiiiiiiiiiiiiiiiiiiiiiiiiiiiiiiiiiiiiiiiiiiiiiiiiiiiiiiiiiiiiiiiiiiiiiiiiiiiiiiiiiiiiiiiiiiiiiiiiiiiiiiiiiiiiiiiiiiiiiiiiiiiiiiiiiiiiiiiiiiiiiiiiiiiiiiiiiiiiiiiiiiiiiiiiiiiiiiiiiiiiiiiiiiiiiiiiiiiiiiiiiiiiiiiiiiiiiiiiiiiiiiiii
(PID.TID 0000.0001) //    239 gggggggggggggggggggggggggggggggggggggggggggggggggggggggggggggggggggggggggggggggggggggggggggggggggggggggggggggggggggggggggggggggggggggggggggggggggggggggggggggggggggggggggggggggggggggggggggggggggggggggggggggggggggggggggggggggggggggggggggggggggggggggggggggggggggggggggggggggggggggggggggggggggggggggggggggggggggggggggggggggggggggggggggggggggggggggggggggggggggggggggggggggg
(PID.TID 0000.0001) //    238 eeeeeeeeeeeeeeeeeeeeeeeeeeeeeeeeeeeeeeeeeeeeeeeeeeeeeeeeeeeeeeeeeeeeeeeeeeeeeeeeeeeeeeeeeeeeeeeeeeeeeeeeeeeeeeeeeeeeeeeeeeeeeeeeeeeeeeeeeeeeeeeeeeeeeeeeeeeeeeeeeeeeeeeeeeeeeeeeeeeeeeeeeeeeeeeeeeeeeeeeeeeeeeeeeeeeeeeeeeeeeeeeeeeeeeeeeeeeeeeeeeeeeeeeeeeeeeeeeeeeeeeeeeeeeeeeeeeeeeeeeeeeeeeeeeeeeeeeeeeeeeeeeeeeeeeeeeeeeeeeeeeeeeeeeeeeeeeeeeeeeeeeeeeeeeeeeeeeeeeeeeeeeeee
(PID.TID 0000.0001) //    243 llllllllllllllllllllllllllllllllllllllllllllllllllllllllllllllllllllllllllllllllllllllllllllllllllllllllllllllllllllllllllllllllllllllllllllllllllllllllllllllllllllllllllllllllllllllllllllllllllllllllllllllllllllllllllllllllllllllllllllllllllllllllllllllllllllllllllllllllllllllllllllllllllllllllllllllllllllllllllllllllllllllllllllllllllllllllllllllllllllllllllllllll
(PID.TID 0000.0001) //    242 kkkkkkkkkkkkkkkkkkkkkkkkkkkkkkkkkkkkkkkkkkkkkkkkkkkkkkkkkkkkkkkkkkkkkkkkkkkkkkkkkkkkkkkkkkkkkkkkkkkkkkkkkkkkkkkkkkkkkkkkkkkkkkkkkkkkkkkkkkkkkkkkkkkkkkkkkkkkkkkkkkkkkkkkkkkkkkkkkkkkkkkkkkkkkkkkkkkkkkkkkkkkkkkkkkkkkkkkkkkkkkkkkkkkkkkkkkkkkkkkkkkkkkkkkkkkkkkkkkkkkkkkkkkkkkkkkkkkkkkkkkkkkkkkkkkkkkkkkkkkkkkkkkkkkkkkkkkkkkkkkkkkkkkkkkkkkkkkkkkkkkkkkkkkkkkkkkkkkkkkkkkkkkkk
(PID.TID 0000.0001) //    241 iiiiiiiiiiiiiiiiiiiiiiiiiiiiiiiiiiiiiiiiiiiiiiiiiiiiiiiiiiiiiiiiiiiiiiiiiiiiiiiiiiiiiiiiiiiiiiiiiiiiiiiiiiiiiiiiiiiiiiiiiiiiiiiiiiiiiiiiiiiiiiiiiiiiiiiiiiiiiiiiiiiiiiiiiiiiiiiiiiiiiiiiiiiiiiiiiiiiiiiiiiiiiiiiiiiiiiiiiiiiiiiiiiiiiiiiiiiiiiiiiiiiiiiiiiiiiiiiiiiiiiiiiiiiiiiiiiiiiiiiiiiiiiiiiiiiiiiiiiiiiiiiiiiiiiiiiiiiiiiiiiiiiiiiiiiiiiiiiiiiiiiiiiiiiiiiiiiiiiiiiiiiiiii
(PID.TID 0000.0001) //    240 iiiiiiiiiiiiiiiiiiiiiiiiiiiiiiiiiiiiiiiiiiiiiiiiiiiiiiiiiiiiiiiiiiiiiiiiiiiiiiiiiiiiiiiiiiiiiiiiiiiiiiiiiiiiiiiiiiiiiiiiiiiiiiiiiiiiiiiiiiiiiiiiiiiiiiiiiiiiiiiiiiiiiiiiiiiiiiiiiiiiiiiiiiiiiiiiiiiiiiiiiiiiiiiiiiiiiiiiiiiiiiiiiiiiiiiiiiiiiiiiiiiiiiiiiiiiiiiiiiiiiiiiiiiiiiiiiiiiiiiiiiiiiiiiiiiiiiiiiiiiiiiiiiiiiiiiiiiiiiiiiiiiiiiiiiiiiiiiiiiiiiiiiiiiiiiiiiiiiiiiiiiiiiii
(PID.TID 0000.0001) //    239 gggggggggggggggggggggggggggggggggggggggggggggggggggggggggggggggggggggggggggggggggggggggggggggggggggggggggggggggggggggggggggggggggggggggggggggggggggggggggggggggggggggggggggggggggggggggggggggggggggggggggggggggggggggggggggggggggggggggggggggggggggggggggggggggggggggggggggggggggggggggggggggggggggggggggggggggggggggggggggggggggggggggggggggggggggggggggggggggggggggggggggggggg
(PID.TID 0000.0001) //    238 eeeeeeeeeeeeeeeeeeeeeeeeeeeeeeeeeeeeeeeeeeeeeeeeeeeeeeeeeeeeeeeeeeeeeeeeeeeeeeeeeeeeeeeeeeeeeeeeeeeeeeeeeeeeeeeeeeeeeeeeeeeeeeeeeeeeeeeeeeeeeeeeeeeeeeeeeeeeeeeeeeeeeeeeeeeeeeeeeeeeeeeeeeeeeeeeeeeeeeeeeeeeeeeeeeeeeeeeeeeeeeeeeeeeeeeeeeeeeeeeeeeeeeeeeeeeeeeeeeeeeeeeeeeeeeeeeeeeeeeeeeeeeeeeeeeeeeeeeeeeeeeeeeeeeeeeeeeeeeeeeeeeeeeeeeeeeeeeeeeeeeeeeeeeeeeeeeeeeeeeeeeeeeee
(PID.TID 0000.0001) //    237 eeeeeeeeeeeeeeeeeeeeeeeeeeeeeeeeeeeeeeeeeeeeeeeeeeeeeeeeeeeeeeeeeeeeeeeeeeeeeeeeeeeeeeeeeeeeeeeeeeeeeeeeeeeeeeeeeeeeeeeeeeeeeeeeeeeeeeeeeeeeeeeeeeeeeeeeeeeeeeeeeeeeeeeeeeeeeeeeeeeeeeeeeeeeeeeeeeeeeeeeeeeeeeeeeeeeeeeeeeeeeeeeeeeeeeeeeeeeeeeeeeeeeeeeeeeeeeeeeeeeeeeeeeeeeeeeeeeeeeeeeeeeeeeeeeeeeeeeeeeeeeeeeeeeeeeeeeeeeeeeeeeeeeeeeeeeeeeeeeeeeeeeeeeeeeeeeeeeeeeeeeeeeeee
(PID.TID 0000.0001) //    236 cccccccccccccccccccccccccccccccccccccccccccccccccccccccccccccccccccccccccccccccccccccccccccccccccccccccccccccccccccccccccccccccccccccccccccccccccccccccccccccccccccccccccccccccccccccccccccccccccccccccccccccccccccccccccccccccccccccccccccccccccccccccccccccccccccccccccccccccccccccccccccccccccccccccccccccccccccccccccccccccccccccccccccccccccccccccccccccccccccccccccccccccc
(PID.TID 0000.0001) //    235 cccccccccccccccccccccccccccccccccccccccccccccccccccccccccccccccccccccccccccccccccccccccccccccccccccccccccccccccccccccccccccccccccccccccccccccccccccccccccccccccccccccccccccccccccccccccccccccccccccccccccccccccccccccccccccccccccccccccccccccccccccccccccccccccccccccccccccccccccccccccccccccccccccccccccccccccccccccccccccccccccccccccccccccccccccccccccccccccccccccccccccccccc
(PID.TID 0000.0001) //    234 --------------------------------------------------------------------------------------------------------------------------------------------------------------------------------------------------------------------------------------------------------------------------------------------------------------------------------------------------------------------------------
(PID.TID 0000.0001) //    233 --------------------------------------------------------------------------------------------------------------------------------------------------------------------------------------------------------------------------------------------------------------------------------------------------------------------------------------------------------------------------------
(PID.TID 0000.0001) //    232 --------------------------------------------------------------------------------------------------------------------------------------------------------------------------------------------------------------------------------------------------------------------------------------------------------------------------------------------------------------------------------
(PID.TID 0000.0001) //    231 --------------------------------------------------------------------------------------------------------------------------------------------------------------------------------------------------------------------------------------------------------------------------------------------------------------------------------------------------------------------------------
(PID.TID 0000.0001) //    230 --------------------------------------------------------------------------------------------------------------------------------------------------------------------------------------------------------------------------------------------------------------------------------------------------------------------------------------------------------------------------------
(PID.TID 0000.0001) //    229 --------------------------------------------------------------------------------------------------------------------------------------------------------------------------------------------------------------------------------------------------------------------------------------------------------------------------------------------------------------------------------
(PID.TID 0000.0001) //    228 --------------------------------------------------------------------------------------------------------------------------------------------------------------------------------------------------------------------------------------------------------------------------------------------------------------------------------------------------------------------------------
(PID.TID 0000.0001) //    227 --------------------------------------------------------------------------------------------------------------------------------------------------------------------------------------------------------------------------------------------------------------------------------------------------------------------------------------------------------------------------------
(PID.TID 0000.0001) //    226 --------------------------------------------------------------------------------------------------------------------------------------------------------------------------------------------------------------------------------------------------------------------------------------------------------------------------------------------------------------------------------
(PID.TID 0000.0001) //    225 --------------------------------------------------------------------------------------------------------------------------------------------------------------------------------------------------------------------------------------------------------------------------------------------------------------------------------------------------------------------------------
(PID.TID 0000.0001) //    224 --------------------------------------------------------------------------------------------------------------------------------------------------------------------------------------------------------------------------------------------------------------------------------------------------------------------------------------------------------------------------------
(PID.TID 0000.0001) //    223 --------------------------------------------------------------------------------------------------------------------------------------------------------------------------------------------------------------------------------------------------------------------------------------------------------------------------------------------------------------------------------
(PID.TID 0000.0001) //    222 --------------------------------------------------------------------------------------------------------------------------------------------------------------------------------------------------------------------------------------------------------------------------------------------------------------------------------------------------------------------------------
(PID.TID 0000.0001) //    221 --------------------------------------------------------------------------------------------------------------------------------------------------------------------------------------------------------------------------------------------------------------------------------------------------------------------------------------------------------------------------------
(PID.TID 0000.0001) //    220 --------------------------------------------------------------------------------------------------------------------------------------------------------------------------------------------------------------------------------------------------------------------------------------------------------------------------------------------------------------------------------
(PID.TID 0000.0001) //    219 --------------------------------------------------------------------------------------------------------------------------------------------------------------------------------------------------------------------------------------------------------------------------------------------------------------------------------------------------------------------------------
(PID.TID 0000.0001) //    218 --------------------------------------------------------------------------------------------------------------------------------------------------------------------------------------------------------------------------------------------------------------------------------------------------------------------------------------------------------------------------------
(PID.TID 0000.0001) //    223 --------------------------------------------------------------------------------------------------------------------------------------------------------------------------------------------------------------------------------------------------------------------------------------------------------------------------------------------------------------------------------
(PID.TID 0000.0001) //    222 --------------------------------------------------------------------------------------------------------------------------------------------------------------------------------------------------------------------------------------------------------------------------------------------------------------------------------------------------------------------------------
(PID.TID 0000.0001) //    221 --------------------------------------------------------------------------------------------------------------------------------------------------------------------------------------------------------------------------------------------------------------------------------------------------------------------------------------------------------------------------------
(PID.TID 0000.0001) //    220 --------------------------------------------------------------------------------------------------------------------------------------------------------------------------------------------------------------------------------------------------------------------------------------------------------------------------------------------------------------------------------
(PID.TID 0000.0001) //    219 --------------------------------------------------------------------------------------------------------------------------------------------------------------------------------------------------------------------------------------------------------------------------------------------------------------------------------------------------------------------------------
(PID.TID 0000.0001) //    218 --------------------------------------------------------------------------------------------------------------------------------------------------------------------------------------------------------------------------------------------------------------------------------------------------------------------------------------------------------------------------------
(PID.TID 0000.0001) //    217 --------------------------------------------------------------------------------------------------------------------------------------------------------------------------------------------------------------------------------------------------------------------------------------------------------------------------------------------------------------------------------
(PID.TID 0000.0001) //    216 --------------------------------------------------------------------------------------------------------------------------------------------------------------------------------------------------------------------------------------------------------------------------------------------------------------------------------------------------------------------------------
(PID.TID 0000.0001) //    215 --------------------------------------------------------------------------------------------------------------------------------------------------------------------------------------------------------------------------------------------------------------------------------------------------------------------------------------------------------------------------------
(PID.TID 0000.0001) //    214 --------------------------------------------------------------------------------------------------------------------------------------------------------------------------------------------------------------------------------------------------------------------------------------------------------------------------------------------------------------------------------
(PID.TID 0000.0001) //    213 --------------------------------------------------------------------------------------------------------------------------------------------------------------------------------------------------------------------------------------------------------------------------------------------------------------------------------------------------------------------------------
(PID.TID 0000.0001) //    212 --------------------------------------------------------------------------------------------------------------------------------------------------------------------------------------------------------------------------------------------------------------------------------------------------------------------------------------------------------------------------------
(PID.TID 0000.0001) //    211 --------------------------------------------------------------------------------------------------------------------------------------------------------------------------------------------------------------------------------------------------------------------------------------------------------------------------------------------------------------------------------
(PID.TID 0000.0001) //    210 --------------------------------------------------------------------------------------------------------------------------------------------------------------------------------------------------------------------------------------------------------------------------------------------------------------------------------------------------------------------------------
(PID.TID 0000.0001) //    209 --------------------------------------------------------------------------------------------------------------------------------------------------------------------------------------------------------------------------------------------------------------------------------------------------------------------------------------------------------------------------------
(PID.TID 0000.0001) //    208 --------------------------------------------------------------------------------------------------------------------------------------------------------------------------------------------------------------------------------------------------------------------------------------------------------------------------------------------------------------------------------
(PID.TID 0000.0001) //    207 --------------------------------------------------------------------------------------------------------------------------------------------------------------------------------------------------------------------------------------------------------------------------------------------------------------------------------------------------------------------------------
(PID.TID 0000.0001) //    206 --------------------------------------------------------------------------------------------------------------------------------------------------------------------------------------------------------------------------------------------------------------------------------------------------------------------------------------------------------------------------------
(PID.TID 0000.0001) //    205 --------------------------------------------------------------------------------------------------------------------------------------------------------------------------------------------------------------------------------------------------------------------------------------------------------------------------------------------------------------------------------
(PID.TID 0000.0001) //    204 --------------------------------------------------------------------------------------------------------------------------------------------------------------------------------------------------------------------------------------------------------------------------------------------------------------------------------------------------------------------------------
(PID.TID 0000.0001) //    203 --------------------------------------------------------------------------------------------------------------------------------------------------------------------------------------------------------------------------------------------------------------------------------------------------------------------------------------------------------------------------------
(PID.TID 0000.0001) //    202 --------------------------------------------------------------------------------------------------------------------------------------------------------------------------------------------------------------------------------------------------------------------------------------------------------------------------------------------------------------------------------
(PID.TID 0000.0001) //    201 --------------------------------------------------------------------------------------------------------------------------------------------------------------------------------------------------------------------------------------------------------------------------------------------------------------------------------------------------------------------------------
(PID.TID 0000.0001) //    200 --------------------------------------------------------------------------------------------------------------------------------------------------------------------------------------------------------------------------------------------------------------------------------------------------------------------------------------------------------------------------------
(PID.TID 0000.0001) //    199 --------------------------------------------------------------------------------------------------------------------------------------------------------------------------------------------------------------------------------------------------------------------------------------------------------------------------------------------------------------------------------
(PID.TID 0000.0001) //    198 --------------------------------------------------------------------------------------------------------------------------------------------------------------------------------------------------------------------------------------------------------------------------------------------------------------------------------------------------------------------------------
(PID.TID 0000.0001) //    203 --------------------------------------------------------------------------------------------------------------------------------------------------------------------------------------------------------------------------------------------------------------------------------------------------------------------------------------------------------------------------------
(PID.TID 0000.0001) //    202 --------------------------------------------------------------------------------------------------------------------------------------------------------------------------------------------------------------------------------------------------------------------------------------------------------------------------------------------------------------------------------
(PID.TID 0000.0001) //    201 --------------------------------------------------------------------------------------------------------------------------------------------------------------------------------------------------------------------------------------------------------------------------------------------------------------------------------------------------------------------------------
(PID.TID 0000.0001) //    200 --------------------------------------------------------------------------------------------------------------------------------------------------------------------------------------------------------------------------------------------------------------------------------------------------------------------------------------------------------------------------------
(PID.TID 0000.0001) //    199 --------------------------------------------------------------------------------------------------------------------------------------------------------------------------------------------------------------------------------------------------------------------------------------------------------------------------------------------------------------------------------
(PID.TID 0000.0001) //    198 --------------------------------------------------------------------------------------------------------------------------------------------------------------------------------------------------------------------------------------------------------------------------------------------------------------------------------------------------------------------------------
(PID.TID 0000.0001) //    197 --------------------------------------------------------------------------------------------------------------------------------------------------------------------------------------------------------------------------------------------------------------------------------------------------------------------------------------------------------------------------------
(PID.TID 0000.0001) //    196 --------------------------------------------------------------------------------------------------------------------------------------------------------------------------------------------------------------------------------------------------------------------------------------------------------------------------------------------------------------------------------
(PID.TID 0000.0001) //    195 --------------------------------------------------------------------------------------------------------------------------------------------------------------------------------------------------------------------------------------------------------------------------------------------------------------------------------------------------------------------------------
(PID.TID 0000.0001) //    194 --------------------------------------------------------------------------------------------------------------------------------------------------------------------------------------------------------------------------------------------------------------------------------------------------------------------------------------------------------------------------------
(PID.TID 0000.0001) //    193 --------------------------------------------------------------------------------------------------------------------------------------------------------------------------------------------------------------------------------------------------------------------------------------------------------------------------------------------------------------------------------
(PID.TID 0000.0001) //    192 --------------------------------------------------------------------------------------------------------------------------------------------------------------------------------------------------------------------------------------------------------------------------------------------------------------------------------------------------------------------------------
(PID.TID 0000.0001) //    191 --------------------------------------------------------------------------------------------------------------------------------------------------------------------------------------------------------------------------------------------------------------------------------------------------------------------------------------------------------------------------------
(PID.TID 0000.0001) //    190 --------------------------------------------------------------------------------------------------------------------------------------------------------------------------------------------------------------------------------------------------------------------------------------------------------------------------------------------------------------------------------
(PID.TID 0000.0001) //    189 --------------------------------------------------------------------------------------------------------------------------------------------------------------------------------------------------------------------------------------------------------------------------------------------------------------------------------------------------------------------------------
(PID.TID 0000.0001) //    188 --------------------------------------------------------------------------------------------------------------------------------------------------------------------------------------------------------------------------------------------------------------------------------------------------------------------------------------------------------------------------------
(PID.TID 0000.0001) //    187 --------------------------------------------------------------------------------------------------------------------------------------------------------------------------------------------------------------------------------------------------------------------------------------------------------------------------------------------------------------------------------
(PID.TID 0000.0001) //    186 --------------------------------------------------------------------------------------------------------------------------------------------------------------------------------------------------------------------------------------------------------------------------------------------------------------------------------------------------------------------------------
(PID.TID 0000.0001) //    185 --------------------------------------------------------------------------------------------------------------------------------------------------------------------------------------------------------------------------------------------------------------------------------------------------------------------------------------------------------------------------------
(PID.TID 0000.0001) //    184 --------------------------------------------------------------------------------------------------------------------------------------------------------------------------------------------------------------------------------------------------------------------------------------------------------------------------------------------------------------------------------
(PID.TID 0000.0001) //    183 --------------------------------------------------------------------------------------------------------------------------------------------------------------------------------------------------------------------------------------------------------------------------------------------------------------------------------------------------------------------------------
(PID.TID 0000.0001) //    182 --------------------------------------------------------------------------------------------------------------------------------------------------------------------------------------------------------------------------------------------------------------------------------------------------------------------------------------------------------------------------------
(PID.TID 0000.0001) //    181 --------------------------------------------------------------------------------------------------------------------------------------------------------------------------------------------------------------------------------------------------------------------------------------------------------------------------------------------------------------------------------
(PID.TID 0000.0001) //    180 --------------------------------------------------------------------------------------------------------------------------------------------------------------------------------------------------------------------------------------------------------------------------------------------------------------------------------------------------------------------------------
(PID.TID 0000.0001) //    179 --------------------------------------------------------------------------------------------------------------------------------------------------------------------------------------------------------------------------------------------------------------------------------------------------------------------------------------------------------------------------------
(PID.TID 0000.0001) //    178 --------------------------------------------------------------------------------------------------------------------------------------------------------------------------------------------------------------------------------------------------------------------------------------------------------------------------------------------------------------------------------
(PID.TID 0000.0001) //    183 --------------------------------------------------------------------------------------------------------------------------------------------------------------------------------------------------------------------------------------------------------------------------------------------------------------------------------------------------------------------------------
(PID.TID 0000.0001) //    182 --------------------------------------------------------------------------------------------------------------------------------------------------------------------------------------------------------------------------------------------------------------------------------------------------------------------------------------------------------------------------------
(PID.TID 0000.0001) //    181 --------------------------------------------------------------------------------------------------------------------------------------------------------------------------------------------------------------------------------------------------------------------------------------------------------------------------------------------------------------------------------
(PID.TID 0000.0001) //    180 --------------------------------------------------------------------------------------------------------------------------------------------------------------------------------------------------------------------------------------------------------------------------------------------------------------------------------------------------------------------------------
(PID.TID 0000.0001) //    179 --------------------------------------------------------------------------------------------------------------------------------------------------------------------------------------------------------------------------------------------------------------------------------------------------------------------------------------------------------------------------------
(PID.TID 0000.0001) //    178 --------------------------------------------------------------------------------------------------------------------------------------------------------------------------------------------------------------------------------------------------------------------------------------------------------------------------------------------------------------------------------
(PID.TID 0000.0001) //    177 --------------------------------------------------------------------------------------------------------------------------------------------------------------------------------------------------------------------------------------------------------------------------------------------------------------------------------------------------------------------------------
(PID.TID 0000.0001) //    176 --------------------------------------------------------------------------------------------------------------------------------------------------------------------------------------------------------------------------------------------------------------------------------------------------------------------------------------------------------------------------------
(PID.TID 0000.0001) //    175 --------------------------------------------------------------------------------------------------------------------------------------------------------------------------------------------------------------------------------------------------------------------------------------------------------------------------------------------------------------------------------
(PID.TID 0000.0001) //    174 --------------------------------------------------------------------------------------------------------------------------------------------------------------------------------------------------------------------------------------------------------------------------------------------------------------------------------------------------------------------------------
(PID.TID 0000.0001) //    173 --------------------------------------------------------------------------------------------------------------------------------------------------------------------------------------------------------------------------------------------------------------------------------------------------------------------------------------------------------------------------------
(PID.TID 0000.0001) //    172 --------------------------------------------------------------------------------------------------------------------------------------------------------------------------------------------------------------------------------------------------------------------------------------------------------------------------------------------------------------------------------
(PID.TID 0000.0001) //    171 --------------------------------------------------------------------------------------------------------------------------------------------------------------------------------------------------------------------------------------------------------------------------------------------------------------------------------------------------------------------------------
(PID.TID 0000.0001) //    170 --------------------------------------------------------------------------------------------------------------------------------------------------------------------------------------------------------------------------------------------------------------------------------------------------------------------------------------------------------------------------------
(PID.TID 0000.0001) //    169 --------------------------------------------------------------------------------------------------------------------------------------------------------------------------------------------------------------------------------------------------------------------------------------------------------------------------------------------------------------------------------
(PID.TID 0000.0001) //    168 --------------------------------------------------------------------------------------------------------------------------------------------------------------------------------------------------------------------------------------------------------------------------------------------------------------------------------------------------------------------------------
(PID.TID 0000.0001) //    167 --------------------------------------------------------------------------------------------------------------------------------------------------------------------------------------------------------------------------------------------------------------------------------------------------------------------------------------------------------------------------------
(PID.TID 0000.0001) //    166 --------------------------------------------------------------------------------------------------------------------------------------------------------------------------------------------------------------------------------------------------------------------------------------------------------------------------------------------------------------------------------
(PID.TID 0000.0001) //    165 --------------------------------------------------------------------------------------------------------------------------------------------------------------------------------------------------------------------------------------------------------------------------------------------------------------------------------------------------------------------------------
(PID.TID 0000.0001) //    164 --------------------------------------------------------------------------------------------------------------------------------------------------------------------------------------------------------------------------------------------------------------------------------------------------------------------------------------------------------------------------------
(PID.TID 0000.0001) //    163 --------------------------------------------------------------------------------------------------------------------------------------------------------------------------------------------------------------------------------------------------------------------------------------------------------------------------------------------------------------------------------
(PID.TID 0000.0001) //    162 --------------------------------------------------------------------------------------------------------------------------------------------------------------------------------------------------------------------------------------------------------------------------------------------------------------------------------------------------------------------------------
(PID.TID 0000.0001) //    161 --------------------------------------------------------------------------------------------------------------------------------------------------------------------------------------------------------------------------------------------------------------------------------------------------------------------------------------------------------------------------------
(PID.TID 0000.0001) //    160 --------------------------------------------------------------------------------------------------------------------------------------------------------------------------------------------------------------------------------------------------------------------------------------------------------------------------------------------------------------------------------
(PID.TID 0000.0001) //    159 --------------------------------------------------------------------------------------------------------------------------------------------------------------------------------------------------------------------------------------------------------------------------------------------------------------------------------------------------------------------------------
(PID.TID 0000.0001) //    158 --------------------------------------------------------------------------------------------------------------------------------------------------------------------------------------------------------------------------------------------------------------------------------------------------------------------------------------------------------------------------------
(PID.TID 0000.0001) //    163 --------------------------------------------------------------------------------------------------------------------------------------------------------------------------------------------------------------------------------------------------------------------------------------------------------------------------------------------------------------------------------
(PID.TID 0000.0001) //    162 --------------------------------------------------------------------------------------------------------------------------------------------------------------------------------------------------------------------------------------------------------------------------------------------------------------------------------------------------------------------------------
(PID.TID 0000.0001) //    161 --------------------------------------------------------------------------------------------------------------------------------------------------------------------------------------------------------------------------------------------------------------------------------------------------------------------------------------------------------------------------------
(PID.TID 0000.0001) //    160 --------------------------------------------------------------------------------------------------------------------------------------------------------------------------------------------------------------------------------------------------------------------------------------------------------------------------------------------------------------------------------
(PID.TID 0000.0001) //    159 --------------------------------------------------------------------------------------------------------------------------------------------------------------------------------------------------------------------------------------------------------------------------------------------------------------------------------------------------------------------------------
(PID.TID 0000.0001) //    158 --------------------------------------------------------------------------------------------------------------------------------------------------------------------------------------------------------------------------------------------------------------------------------------------------------------------------------------------------------------------------------
(PID.TID 0000.0001) //    157 --------------------------------------------------------------------------------------------------------------------------------------------------------------------------------------------------------------------------------------------------------------------------------------------------------------------------------------------------------------------------------
(PID.TID 0000.0001) //    156 --------------------------------------------------------------------------------------------------------------------------------------------------------------------------------------------------------------------------------------------------------------------------------------------------------------------------------------------------------------------------------
(PID.TID 0000.0001) //    155 --------------------------------------------------------------------------------------------------------------------------------------------------------------------------------------------------------------------------------------------------------------------------------------------------------------------------------------------------------------------------------
(PID.TID 0000.0001) //    154 --------------------------------------------------------------------------------------------------------------------------------------------------------------------------------------------------------------------------------------------------------------------------------------------------------------------------------------------------------------------------------
(PID.TID 0000.0001) //    153 --------------------------------------------------------------------------------------------------------------------------------------------------------------------------------------------------------------------------------------------------------------------------------------------------------------------------------------------------------------------------------
(PID.TID 0000.0001) //    152 --------------------------------------------------------------------------------------------------------------------------------------------------------------------------------------------------------------------------------------------------------------------------------------------------------------------------------------------------------------------------------
(PID.TID 0000.0001) //    151 --------------------------------------------------------------------------------------------------------------------------------------------------------------------------------------------------------------------------------------------------------------------------------------------------------------------------------------------------------------------------------
(PID.TID 0000.0001) //    150 --------------------------------------------------------------------------------------------------------------------------------------------------------------------------------------------------------------------------------------------------------------------------------------------------------------------------------------------------------------------------------
(PID.TID 0000.0001) //    149 --------------------------------------------------------------------------------------------------------------------------------------------------------------------------------------------------------------------------------------------------------------------------------------------------------------------------------------------------------------------------------
(PID.TID 0000.0001) //    148 --------------------------------------------------------------------------------------------------------------------------------------------------------------------------------------------------------------------------------------------------------------------------------------------------------------------------------------------------------------------------------
(PID.TID 0000.0001) //    147 --------------------------------------------------------------------------------------------------------------------------------------------------------------------------------------------------------------------------------------------------------------------------------------------------------------------------------------------------------------------------------
(PID.TID 0000.0001) //    146 --------------------------------------------------------------------------------------------------------------------------------------------------------------------------------------------------------------------------------------------------------------------------------------------------------------------------------------------------------------------------------
(PID.TID 0000.0001) //    145 --------------------------------------------------------------------------------------------------------------------------------------------------------------------------------------------------------------------------------------------------------------------------------------------------------------------------------------------------------------------------------
(PID.TID 0000.0001) //    144 --------------------------------------------------------------------------------------------------------------------------------------------------------------------------------------------------------------------------------------------------------------------------------------------------------------------------------------------------------------------------------
(PID.TID 0000.0001) //    143 --------------------------------------------------------------------------------------------------------------------------------------------------------------------------------------------------------------------------------------------------------------------------------------------------------------------------------------------------------------------------------
(PID.TID 0000.0001) //    142 --------------------------------------------------------------------------------------------------------------------------------------------------------------------------------------------------------------------------------------------------------------------------------------------------------------------------------------------------------------------------------
(PID.TID 0000.0001) //    141 --------------------------------------------------------------------------------------------------------------------------------------------------------------------------------------------------------------------------------------------------------------------------------------------------------------------------------------------------------------------------------
(PID.TID 0000.0001) //    140 --------------------------------------------------------------------------------------------------------------------------------------------------------------------------------------------------------------------------------------------------------------------------------------------------------------------------------------------------------------------------------
(PID.TID 0000.0001) //    139 --------------------------------------------------------------------------------------------------------------------------------------------------------------------------------------------------------------------------------------------------------------------------------------------------------------------------------------------------------------------------------
(PID.TID 0000.0001) //    138 --------------------------------------------------------------------------------------------------------------------------------------------------------------------------------------------------------------------------------------------------------------------------------------------------------------------------------------------------------------------------------
(PID.TID 0000.0001) //    143 --------------------------------------------------------------------------------------------------------------------------------------------------------------------------------------------------------------------------------------------------------------------------------------------------------------------------------------------------------------------------------
(PID.TID 0000.0001) //    142 --------------------------------------------------------------------------------------------------------------------------------------------------------------------------------------------------------------------------------------------------------------------------------------------------------------------------------------------------------------------------------
(PID.TID 0000.0001) //    141 --------------------------------------------------------------------------------------------------------------------------------------------------------------------------------------------------------------------------------------------------------------------------------------------------------------------------------------------------------------------------------
(PID.TID 0000.0001) //    140 --------------------------------------------------------------------------------------------------------------------------------------------------------------------------------------------------------------------------------------------------------------------------------------------------------------------------------------------------------------------------------
(PID.TID 0000.0001) //    139 --------------------------------------------------------------------------------------------------------------------------------------------------------------------------------------------------------------------------------------------------------------------------------------------------------------------------------------------------------------------------------
(PID.TID 0000.0001) //    138 --------------------------------------------------------------------------------------------------------------------------------------------------------------------------------------------------------------------------------------------------------------------------------------------------------------------------------------------------------------------------------
(PID.TID 0000.0001) //    137 --------------------------------------------------------------------------------------------------------------------------------------------------------------------------------------------------------------------------------------------------------------------------------------------------------------------------------------------------------------------------------
(PID.TID 0000.0001) //    136 --------------------------------------------------------------------------------------------------------------------------------------------------------------------------------------------------------------------------------------------------------------------------------------------------------------------------------------------------------------------------------
(PID.TID 0000.0001) //    135 --------------------------------------------------------------------------------------------------------------------------------------------------------------------------------------------------------------------------------------------------------------------------------------------------------------------------------------------------------------------------------
(PID.TID 0000.0001) //    134 --------------------------------------------------------------------------------------------------------------------------------------------------------------------------------------------------------------------------------------------------------------------------------------------------------------------------------------------------------------------------------
(PID.TID 0000.0001) //    133 --------------------------------------------------------------------------------------------------------------------------------------------------------------------------------------------------------------------------------------------------------------------------------------------------------------------------------------------------------------------------------
(PID.TID 0000.0001) //    132 --------------------------------------------------------------------------------------------------------------------------------------------------------------------------------------------------------------------------------------------------------------------------------------------------------------------------------------------------------------------------------
(PID.TID 0000.0001) //    131 --------------------------------------------------------------------------------------------------------------------------------------------------------------------------------------------------------------------------------------------------------------------------------------------------------------------------------------------------------------------------------
(PID.TID 0000.0001) //    130 --------------------------------------------------------------------------------------------------------------------------------------------------------------------------------------------------------------------------------------------------------------------------------------------------------------------------------------------------------------------------------
(PID.TID 0000.0001) //    129 --------------------------------------------------------------------------------------------------------------------------------------------------------------------------------------------------------------------------------------------------------------------------------------------------------------------------------------------------------------------------------
(PID.TID 0000.0001) //    128 --------------------------------------------------------------------------------------------------------------------------------------------------------------------------------------------------------------------------------------------------------------------------------------------------------------------------------------------------------------------------------
(PID.TID 0000.0001) //    127 --------------------------------------------------------------------------------------------------------------------------------------------------------------------------------------------------------------------------------------------------------------------------------------------------------------------------------------------------------------------------------
(PID.TID 0000.0001) //    126 --------------------------------------------------------------------------------------------------------------------------------------------------------------------------------------------------------------------------------------------------------------------------------------------------------------------------------------------------------------------------------
(PID.TID 0000.0001) //    125 --------------------------------------------------------------------------------------------------------------------------------------------------------------------------------------------------------------------------------------------------------------------------------------------------------------------------------------------------------------------------------
(PID.TID 0000.0001) //    124 --------------------------------------------------------------------------------------------------------------------------------------------------------------------------------------------------------------------------------------------------------------------------------------------------------------------------------------------------------------------------------
(PID.TID 0000.0001) //    123 --------------------------------------------------------------------------------------------------------------------------------------------------------------------------------------------------------------------------------------------------------------------------------------------------------------------------------------------------------------------------------
(PID.TID 0000.0001) //    122 --------------------------------------------------------------------------------------------------------------------------------------------------------------------------------------------------------------------------------------------------------------------------------------------------------------------------------------------------------------------------------
(PID.TID 0000.0001) //    121 --------------------------------------------------------------------------------------------------------------------------------------------------------------------------------------------------------------------------------------------------------------------------------------------------------------------------------------------------------------------------------
(PID.TID 0000.0001) //    120 --------------------------------------------------------------------------------------------------------------------------------------------------------------------------------------------------------------------------------------------------------------------------------------------------------------------------------------------------------------------------------
(PID.TID 0000.0001) //    119 --------------------------------------------------------------------------------------------------------------------------------------------------------------------------------------------------------------------------------------------------------------------------------------------------------------------------------------------------------------------------------
(PID.TID 0000.0001) //    118 --------------------------------------------------------------------------------------------------------------------------------------------------------------------------------------------------------------------------------------------------------------------------------------------------------------------------------------------------------------------------------
(PID.TID 0000.0001) //    123 --------------------------------------------------------------------------------------------------------------------------------------------------------------------------------------------------------------------------------------------------------------------------------------------------------------------------------------------------------------------------------
(PID.TID 0000.0001) //    122 --------------------------------------------------------------------------------------------------------------------------------------------------------------------------------------------------------------------------------------------------------------------------------------------------------------------------------------------------------------------------------
(PID.TID 0000.0001) //    121 --------------------------------------------------------------------------------------------------------------------------------------------------------------------------------------------------------------------------------------------------------------------------------------------------------------------------------------------------------------------------------
(PID.TID 0000.0001) //    120 --------------------------------------------------------------------------------------------------------------------------------------------------------------------------------------------------------------------------------------------------------------------------------------------------------------------------------------------------------------------------------
(PID.TID 0000.0001) //    119 --------------------------------------------------------------------------------------------------------------------------------------------------------------------------------------------------------------------------------------------------------------------------------------------------------------------------------------------------------------------------------
(PID.TID 0000.0001) //    118 --------------------------------------------------------------------------------------------------------------------------------------------------------------------------------------------------------------------------------------------------------------------------------------------------------------------------------------------------------------------------------
(PID.TID 0000.0001) //    117 --------------------------------------------------------------------------------------------------------------------------------------------------------------------------------------------------------------------------------------------------------------------------------------------------------------------------------------------------------------------------------
(PID.TID 0000.0001) //    116 --------------------------------------------------------------------------------------------------------------------------------------------------------------------------------------------------------------------------------------------------------------------------------------------------------------------------------------------------------------------------------
(PID.TID 0000.0001) //    115 --------------------------------------------------------------------------------------------------------------------------------------------------------------------------------------------------------------------------------------------------------------------------------------------------------------------------------------------------------------------------------
(PID.TID 0000.0001) //    114 --------------------------------------------------------------------------------------------------------------------------------------------------------------------------------------------------------------------------------------------------------------------------------------------------------------------------------------------------------------------------------
(PID.TID 0000.0001) //    113 --------------------------------------------------------------------------------------------------------------------------------------------------------------------------------------------------------------------------------------------------------------------------------------------------------------------------------------------------------------------------------
(PID.TID 0000.0001) //    112 --------------------------------------------------------------------------------------------------------------------------------------------------------------------------------------------------------------------------------------------------------------------------------------------------------------------------------------------------------------------------------
(PID.TID 0000.0001) //    111 --------------------------------------------------------------------------------------------------------------------------------------------------------------------------------------------------------------------------------------------------------------------------------------------------------------------------------------------------------------------------------
(PID.TID 0000.0001) //    110 --------------------------------------------------------------------------------------------------------------------------------------------------------------------------------------------------------------------------------------------------------------------------------------------------------------------------------------------------------------------------------
(PID.TID 0000.0001) //    109 --------------------------------------------------------------------------------------------------------------------------------------------------------------------------------------------------------------------------------------------------------------------------------------------------------------------------------------------------------------------------------
(PID.TID 0000.0001) //    108 --------------------------------------------------------------------------------------------------------------------------------------------------------------------------------------------------------------------------------------------------------------------------------------------------------------------------------------------------------------------------------
(PID.TID 0000.0001) //    107 --------------------------------------------------------------------------------------------------------------------------------------------------------------------------------------------------------------------------------------------------------------------------------------------------------------------------------------------------------------------------------
(PID.TID 0000.0001) //    106 --------------------------------------------------------------------------------------------------------------------------------------------------------------------------------------------------------------------------------------------------------------------------------------------------------------------------------------------------------------------------------
(PID.TID 0000.0001) //    105 --------------------------------------------------------------------------------------------------------------------------------------------------------------------------------------------------------------------------------------------------------------------------------------------------------------------------------------------------------------------------------
(PID.TID 0000.0001) //    104 --------------------------------------------------------------------------------------------------------------------------------------------------------------------------------------------------------------------------------------------------------------------------------------------------------------------------------------------------------------------------------
(PID.TID 0000.0001) //    103 --------------------------------------------------------------------------------------------------------------------------------------------------------------------------------------------------------------------------------------------------------------------------------------------------------------------------------------------------------------------------------
(PID.TID 0000.0001) //    102 --------------------------------------------------------------------------------------------------------------------------------------------------------------------------------------------------------------------------------------------------------------------------------------------------------------------------------------------------------------------------------
(PID.TID 0000.0001) //    101 --------------------------------------------------------------------------------------------------------------------------------------------------------------------------------------------------------------------------------------------------------------------------------------------------------------------------------------------------------------------------------
(PID.TID 0000.0001) //    100 --------------------------------------------------------------------------------------------------------------------------------------------------------------------------------------------------------------------------------------------------------------------------------------------------------------------------------------------------------------------------------
(PID.TID 0000.0001) //     99 --------------------------------------------------------------------------------------------------------------------------------------------------------------------------------------------------------------------------------------------------------------------------------------------------------------------------------------------------------------------------------
(PID.TID 0000.0001) //     98 --------------------------------------------------------------------------------------------------------------------------------------------------------------------------------------------------------------------------------------------------------------------------------------------------------------------------------------------------------------------------------
(PID.TID 0000.0001) //    103 --------------------------------------------------------------------------------------------------------------------------------------------------------------------------------------------------------------------------------------------------------------------------------------------------------------------------------------------------------------------------------
(PID.TID 0000.0001) //    102 --------------------------------------------------------------------------------------------------------------------------------------------------------------------------------------------------------------------------------------------------------------------------------------------------------------------------------------------------------------------------------
(PID.TID 0000.0001) //    101 --------------------------------------------------------------------------------------------------------------------------------------------------------------------------------------------------------------------------------------------------------------------------------------------------------------------------------------------------------------------------------
(PID.TID 0000.0001) //    100 --------------------------------------------------------------------------------------------------------------------------------------------------------------------------------------------------------------------------------------------------------------------------------------------------------------------------------------------------------------------------------
(PID.TID 0000.0001) //     99 --------------------------------------------------------------------------------------------------------------------------------------------------------------------------------------------------------------------------------------------------------------------------------------------------------------------------------------------------------------------------------
(PID.TID 0000.0001) //     98 --------------------------------------------------------------------------------------------------------------------------------------------------------------------------------------------------------------------------------------------------------------------------------------------------------------------------------------------------------------------------------
(PID.TID 0000.0001) //     97 --------------------------------------------------------------------------------------------------------------------------------------------------------------------------------------------------------------------------------------------------------------------------------------------------------------------------------------------------------------------------------
(PID.TID 0000.0001) //     96 --------------------------------------------------------------------------------------------------------------------------------------------------------------------------------------------------------------------------------------------------------------------------------------------------------------------------------------------------------------------------------
(PID.TID 0000.0001) //     95 --------------------------------------------------------------------------------------------------------------------------------------------------------------------------------------------------------------------------------------------------------------------------------------------------------------------------------------------------------------------------------
(PID.TID 0000.0001) //     94 --------------------------------------------------------------------------------------------------------------------------------------------------------------------------------------------------------------------------------------------------------------------------------------------------------------------------------------------------------------------------------
(PID.TID 0000.0001) //     93 --------------------------------------------------------------------------------------------------------------------------------------------------------------------------------------------------------------------------------------------------------------------------------------------------------------------------------------------------------------------------------
(PID.TID 0000.0001) //     92 --------------------------------------------------------------------------------------------------------------------------------------------------------------------------------------------------------------------------------------------------------------------------------------------------------------------------------------------------------------------------------
(PID.TID 0000.0001) //     91 --------------------------------------------------------------------------------------------------------------------------------------------------------------------------------------------------------------------------------------------------------------------------------------------------------------------------------------------------------------------------------
(PID.TID 0000.0001) //     90 --------------------------------------------------------------------------------------------------------------------------------------------------------------------------------------------------------------------------------------------------------------------------------------------------------------------------------------------------------------------------------
(PID.TID 0000.0001) //     89 --------------------------------------------------------------------------------------------------------------------------------------------------------------------------------------------------------------------------------------------------------------------------------------------------------------------------------------------------------------------------------
(PID.TID 0000.0001) //     88 --------------------------------------------------------------------------------------------------------------------------------------------------------------------------------------------------------------------------------------------------------------------------------------------------------------------------------------------------------------------------------
(PID.TID 0000.0001) //     87 --------------------------------------------------------------------------------------------------------------------------------------------------------------------------------------------------------------------------------------------------------------------------------------------------------------------------------------------------------------------------------
(PID.TID 0000.0001) //     86 --------------------------------------------------------------------------------------------------------------------------------------------------------------------------------------------------------------------------------------------------------------------------------------------------------------------------------------------------------------------------------
(PID.TID 0000.0001) //     85 --------------------------------------------------------------------------------------------------------------------------------------------------------------------------------------------------------------------------------------------------------------------------------------------------------------------------------------------------------------------------------
(PID.TID 0000.0001) //     84 --------------------------------------------------------------------------------------------------------------------------------------------------------------------------------------------------------------------------------------------------------------------------------------------------------------------------------------------------------------------------------
(PID.TID 0000.0001) //     83 --------------------------------------------------------------------------------------------------------------------------------------------------------------------------------------------------------------------------------------------------------------------------------------------------------------------------------------------------------------------------------
(PID.TID 0000.0001) //     82 --------------------------------------------------------------------------------------------------------------------------------------------------------------------------------------------------------------------------------------------------------------------------------------------------------------------------------------------------------------------------------
(PID.TID 0000.0001) //     81 --------------------------------------------------------------------------------------------------------------------------------------------------------------------------------------------------------------------------------------------------------------------------------------------------------------------------------------------------------------------------------
(PID.TID 0000.0001) //     80 --------------------------------------------------------------------------------------------------------------------------------------------------------------------------------------------------------------------------------------------------------------------------------------------------------------------------------------------------------------------------------
(PID.TID 0000.0001) //     79 --------------------------------------------------------------------------------------------------------------------------------------------------------------------------------------------------------------------------------------------------------------------------------------------------------------------------------------------------------------------------------
(PID.TID 0000.0001) //     78 --------------------------------------------------------------------------------------------------------------------------------------------------------------------------------------------------------------------------------------------------------------------------------------------------------------------------------------------------------------------------------
(PID.TID 0000.0001) //     83 --------------------------------------------------------------------------------------------------------------------------------------------------------------------------------------------------------------------------------------------------------------------------------------------------------------------------------------------------------------------------------
(PID.TID 0000.0001) //     82 --------------------------------------------------------------------------------------------------------------------------------------------------------------------------------------------------------------------------------------------------------------------------------------------------------------------------------------------------------------------------------
(PID.TID 0000.0001) //     81 --------------------------------------------------------------------------------------------------------------------------------------------------------------------------------------------------------------------------------------------------------------------------------------------------------------------------------------------------------------------------------
(PID.TID 0000.0001) //     80 --------------------------------------------------------------------------------------------------------------------------------------------------------------------------------------------------------------------------------------------------------------------------------------------------------------------------------------------------------------------------------
(PID.TID 0000.0001) //     79 --------------------------------------------------------------------------------------------------------------------------------------------------------------------------------------------------------------------------------------------------------------------------------------------------------------------------------------------------------------------------------
(PID.TID 0000.0001) //     78 --------------------------------------------------------------------------------------------------------------------------------------------------------------------------------------------------------------------------------------------------------------------------------------------------------------------------------------------------------------------------------
(PID.TID 0000.0001) //     77 --------------------------------------------------------------------------------------------------------------------------------------------------------------------------------------------------------------------------------------------------------------------------------------------------------------------------------------------------------------------------------
(PID.TID 0000.0001) //     76 --------------------------------------------------------------------------------------------------------------------------------------------------------------------------------------------------------------------------------------------------------------------------------------------------------------------------------------------------------------------------------
(PID.TID 0000.0001) //     75 --------------------------------------------------------------------------------------------------------------------------------------------------------------------------------------------------------------------------------------------------------------------------------------------------------------------------------------------------------------------------------
(PID.TID 0000.0001) //     74 --------------------------------------------------------------------------------------------------------------------------------------------------------------------------------------------------------------------------------------------------------------------------------------------------------------------------------------------------------------------------------
(PID.TID 0000.0001) //     73 --------------------------------------------------------------------------------------------------------------------------------------------------------------------------------------------------------------------------------------------------------------------------------------------------------------------------------------------------------------------------------
(PID.TID 0000.0001) //     72 --------------------------------------------------------------------------------------------------------------------------------------------------------------------------------------------------------------------------------------------------------------------------------------------------------------------------------------------------------------------------------
(PID.TID 0000.0001) //     71 --------------------------------------------------------------------------------------------------------------------------------------------------------------------------------------------------------------------------------------------------------------------------------------------------------------------------------------------------------------------------------
(PID.TID 0000.0001) //     70 --------------------------------------------------------------------------------------------------------------------------------------------------------------------------------------------------------------------------------------------------------------------------------------------------------------------------------------------------------------------------------
(PID.TID 0000.0001) //     69 --------------------------------------------------------------------------------------------------------------------------------------------------------------------------------------------------------------------------------------------------------------------------------------------------------------------------------------------------------------------------------
(PID.TID 0000.0001) //     68 --------------------------------------------------------------------------------------------------------------------------------------------------------------------------------------------------------------------------------------------------------------------------------------------------------------------------------------------------------------------------------
(PID.TID 0000.0001) //     67 --------------------------------------------------------------------------------------------------------------------------------------------------------------------------------------------------------------------------------------------------------------------------------------------------------------------------------------------------------------------------------
(PID.TID 0000.0001) //     66 --------------------------------------------------------------------------------------------------------------------------------------------------------------------------------------------------------------------------------------------------------------------------------------------------------------------------------------------------------------------------------
(PID.TID 0000.0001) //     65 --------------------------------------------------------------------------------------------------------------------------------------------------------------------------------------------------------------------------------------------------------------------------------------------------------------------------------------------------------------------------------
(PID.TID 0000.0001) //     64 --------------------------------------------------------------------------------------------------------------------------------------------------------------------------------------------------------------------------------------------------------------------------------------------------------------------------------------------------------------------------------
(PID.TID 0000.0001) //     63 --------------------------------------------------------------------------------------------------------------------------------------------------------------------------------------------------------------------------------------------------------------------------------------------------------------------------------------------------------------------------------
(PID.TID 0000.0001) //     62 --------------------------------------------------------------------------------------------------------------------------------------------------------------------------------------------------------------------------------------------------------------------------------------------------------------------------------------------------------------------------------
(PID.TID 0000.0001) //     61 --------------------------------------------------------------------------------------------------------------------------------------------------------------------------------------------------------------------------------------------------------------------------------------------------------------------------------------------------------------------------------
(PID.TID 0000.0001) //     60 --------------------------------------------------------------------------------------------------------------------------------------------------------------------------------------------------------------------------------------------------------------------------------------------------------------------------------------------------------------------------------
(PID.TID 0000.0001) //     59 --------------------------------------------------------------------------------------------------------------------------------------------------------------------------------------------------------------------------------------------------------------------------------------------------------------------------------------------------------------------------------
(PID.TID 0000.0001) //     58 --------------------------------------------------------------------------------------------------------------------------------------------------------------------------------------------------------------------------------------------------------------------------------------------------------------------------------------------------------------------------------
(PID.TID 0000.0001) //     63 --------------------------------------------------------------------------------------------------------------------------------------------------------------------------------------------------------------------------------------------------------------------------------------------------------------------------------------------------------------------------------
(PID.TID 0000.0001) //     62 --------------------------------------------------------------------------------------------------------------------------------------------------------------------------------------------------------------------------------------------------------------------------------------------------------------------------------------------------------------------------------
(PID.TID 0000.0001) //     61 --------------------------------------------------------------------------------------------------------------------------------------------------------------------------------------------------------------------------------------------------------------------------------------------------------------------------------------------------------------------------------
(PID.TID 0000.0001) //     60 --------------------------------------------------------------------------------------------------------------------------------------------------------------------------------------------------------------------------------------------------------------------------------------------------------------------------------------------------------------------------------
(PID.TID 0000.0001) //     59 --------------------------------------------------------------------------------------------------------------------------------------------------------------------------------------------------------------------------------------------------------------------------------------------------------------------------------------------------------------------------------
(PID.TID 0000.0001) //     58 --------------------------------------------------------------------------------------------------------------------------------------------------------------------------------------------------------------------------------------------------------------------------------------------------------------------------------------------------------------------------------
(PID.TID 0000.0001) //     57 --------------------------------------------------------------------------------------------------------------------------------------------------------------------------------------------------------------------------------------------------------------------------------------------------------------------------------------------------------------------------------
(PID.TID 0000.0001) //     56 --------------------------------------------------------------------------------------------------------------------------------------------------------------------------------------------------------------------------------------------------------------------------------------------------------------------------------------------------------------------------------
(PID.TID 0000.0001) //     55 --------------------------------------------------------------------------------------------------------------------------------------------------------------------------------------------------------------------------------------------------------------------------------------------------------------------------------------------------------------------------------
(PID.TID 0000.0001) //     54 --------------------------------------------------------------------------------------------------------------------------------------------------------------------------------------------------------------------------------------------------------------------------------------------------------------------------------------------------------------------------------
(PID.TID 0000.0001) //     53 --------------------------------------------------------------------------------------------------------------------------------------------------------------------------------------------------------------------------------------------------------------------------------------------------------------------------------------------------------------------------------
(PID.TID 0000.0001) //     52 --------------------------------------------------------------------------------------------------------------------------------------------------------------------------------------------------------------------------------------------------------------------------------------------------------------------------------------------------------------------------------
(PID.TID 0000.0001) //     51 --------------------------------------------------------------------------------------------------------------------------------------------------------------------------------------------------------------------------------------------------------------------------------------------------------------------------------------------------------------------------------
(PID.TID 0000.0001) //     50 --------------------------------------------------------------------------------------------------------------------------------------------------------------------------------------------------------------------------------------------------------------------------------------------------------------------------------------------------------------------------------
(PID.TID 0000.0001) //     49 --------------------------------------------------------------------------------------------------------------------------------------------------------------------------------------------------------------------------------------------------------------------------------------------------------------------------------------------------------------------------------
(PID.TID 0000.0001) //     48 --------------------------------------------------------------------------------------------------------------------------------------------------------------------------------------------------------------------------------------------------------------------------------------------------------------------------------------------------------------------------------
(PID.TID 0000.0001) //     47 --------------------------------------------------------------------------------------------------------------------------------------------------------------------------------------------------------------------------------------------------------------------------------------------------------------------------------------------------------------------------------
(PID.TID 0000.0001) //     46 --------------------------------------------------------------------------------------------------------------------------------------------------------------------------------------------------------------------------------------------------------------------------------------------------------------------------------------------------------------------------------
(PID.TID 0000.0001) //     45 --------------------------------------------------------------------------------------------------------------------------------------------------------------------------------------------------------------------------------------------------------------------------------------------------------------------------------------------------------------------------------
(PID.TID 0000.0001) //     44 --------------------------------------------------------------------------------------------------------------------------------------------------------------------------------------------------------------------------------------------------------------------------------------------------------------------------------------------------------------------------------
(PID.TID 0000.0001) //     43 --------------------------------------------------------------------------------------------------------------------------------------------------------------------------------------------------------------------------------------------------------------------------------------------------------------------------------------------------------------------------------
(PID.TID 0000.0001) //     42 --------------------------------------------------------------------------------------------------------------------------------------------------------------------------------------------------------------------------------------------------------------------------------------------------------------------------------------------------------------------------------
(PID.TID 0000.0001) //     41 --------------------------------------------------------------------------------------------------------------------------------------------------------------------------------------------------------------------------------------------------------------------------------------------------------------------------------------------------------------------------------
(PID.TID 0000.0001) //     40 --------------------------------------------------------------------------------------------------------------------------------------------------------------------------------------------------------------------------------------------------------------------------------------------------------------------------------------------------------------------------------
(PID.TID 0000.0001) //     39 --------------------------------------------------------------------------------------------------------------------------------------------------------------------------------------------------------------------------------------------------------------------------------------------------------------------------------------------------------------------------------
(PID.TID 0000.0001) //     38 --------------------------------------------------------------------------------------------------------------------------------------------------------------------------------------------------------------------------------------------------------------------------------------------------------------------------------------------------------------------------------
(PID.TID 0000.0001) //     43 --------------------------------------------------------------------------------------------------------------------------------------------------------------------------------------------------------------------------------------------------------------------------------------------------------------------------------------------------------------------------------
(PID.TID 0000.0001) //     42 --------------------------------------------------------------------------------------------------------------------------------------------------------------------------------------------------------------------------------------------------------------------------------------------------------------------------------------------------------------------------------
(PID.TID 0000.0001) //     41 --------------------------------------------------------------------------------------------------------------------------------------------------------------------------------------------------------------------------------------------------------------------------------------------------------------------------------------------------------------------------------
(PID.TID 0000.0001) //     40 --------------------------------------------------------------------------------------------------------------------------------------------------------------------------------------------------------------------------------------------------------------------------------------------------------------------------------------------------------------------------------
(PID.TID 0000.0001) //     39 --------------------------------------------------------------------------------------------------------------------------------------------------------------------------------------------------------------------------------------------------------------------------------------------------------------------------------------------------------------------------------
(PID.TID 0000.0001) //     38 --------------------------------------------------------------------------------------------------------------------------------------------------------------------------------------------------------------------------------------------------------------------------------------------------------------------------------------------------------------------------------
(PID.TID 0000.0001) //     37 --------------------------------------------------------------------------------------------------------------------------------------------------------------------------------------------------------------------------------------------------------------------------------------------------------------------------------------------------------------------------------
(PID.TID 0000.0001) //     36 --------------------------------------------------------------------------------------------------------------------------------------------------------------------------------------------------------------------------------------------------------------------------------------------------------------------------------------------------------------------------------
(PID.TID 0000.0001) //     35 --------------------------------------------------------------------------------------------------------------------------------------------------------------------------------------------------------------------------------------------------------------------------------------------------------------------------------------------------------------------------------
(PID.TID 0000.0001) //     34 --------------------------------------------------------------------------------------------------------------------------------------------------------------------------------------------------------------------------------------------------------------------------------------------------------------------------------------------------------------------------------
(PID.TID 0000.0001) //     33 --------------------------------------------------------------------------------------------------------------------------------------------------------------------------------------------------------------------------------------------------------------------------------------------------------------------------------------------------------------------------------
(PID.TID 0000.0001) //     32 --------------------------------------------------------------------------------------------------------------------------------------------------------------------------------------------------------------------------------------------------------------------------------------------------------------------------------------------------------------------------------
(PID.TID 0000.0001) //     31 --------------------------------------------------------------------------------------------------------------------------------------------------------------------------------------------------------------------------------------------------------------------------------------------------------------------------------------------------------------------------------
(PID.TID 0000.0001) //     30 --------------------------------------------------------------------------------------------------------------------------------------------------------------------------------------------------------------------------------------------------------------------------------------------------------------------------------------------------------------------------------
(PID.TID 0000.0001) //     29 --------------------------------------------------------------------------------------------------------------------------------------------------------------------------------------------------------------------------------------------------------------------------------------------------------------------------------------------------------------------------------
(PID.TID 0000.0001) //     28 --------------------------------------------------------------------------------------------------------------------------------------------------------------------------------------------------------------------------------------------------------------------------------------------------------------------------------------------------------------------------------
(PID.TID 0000.0001) //     27 --------------------------------------------------------------------------------------------------------------------------------------------------------------------------------------------------------------------------------------------------------------------------------------------------------------------------------------------------------------------------------
(PID.TID 0000.0001) //     26 --------------------------------------------------------------------------------------------------------------------------------------------------------------------------------------------------------------------------------------------------------------------------------------------------------------------------------------------------------------------------------
(PID.TID 0000.0001) //     25 --------------------------------------------------------------------------------------------------------------------------------------------------------------------------------------------------------------------------------------------------------------------------------------------------------------------------------------------------------------------------------
(PID.TID 0000.0001) //     24 --------------------------------------------------------------------------------------------------------------------------------------------------------------------------------------------------------------------------------------------------------------------------------------------------------------------------------------------------------------------------------
(PID.TID 0000.0001) //     23 --------------------------------------------------------------------------------------------------------------------------------------------------------------------------------------------------------------------------------------------------------------------------------------------------------------------------------------------------------------------------------
(PID.TID 0000.0001) //     22 --------------------------------------------------------------------------------------------------------------------------------------------------------------------------------------------------------------------------------------------------------------------------------------------------------------------------------------------------------------------------------
(PID.TID 0000.0001) //     21 --------------------------------------------------------------------------------------------------------------------------------------------------------------------------------------------------------------------------------------------------------------------------------------------------------------------------------------------------------------------------------
(PID.TID 0000.0001) //     20 --------------------------------------------------------------------------------------------------------------------------------------------------------------------------------------------------------------------------------------------------------------------------------------------------------------------------------------------------------------------------------
(PID.TID 0000.0001) //     19 --------------------------------------------------------------------------------------------------------------------------------------------------------------------------------------------------------------------------------------------------------------------------------------------------------------------------------------------------------------------------------
(PID.TID 0000.0001) //     18 --------------------------------------------------------------------------------------------------------------------------------------------------------------------------------------------------------------------------------------------------------------------------------------------------------------------------------------------------------------------------------
(PID.TID 0000.0001) //     23 --------------------------------------------------------------------------------------------------------------------------------------------------------------------------------------------------------------------------------------------------------------------------------------------------------------------------------------------------------------------------------
(PID.TID 0000.0001) //     22 --------------------------------------------------------------------------------------------------------------------------------------------------------------------------------------------------------------------------------------------------------------------------------------------------------------------------------------------------------------------------------
(PID.TID 0000.0001) //     21 --------------------------------------------------------------------------------------------------------------------------------------------------------------------------------------------------------------------------------------------------------------------------------------------------------------------------------------------------------------------------------
(PID.TID 0000.0001) //     20 --------------------------------------------------------------------------------------------------------------------------------------------------------------------------------------------------------------------------------------------------------------------------------------------------------------------------------------------------------------------------------
(PID.TID 0000.0001) //     19 --------------------------------------------------------------------------------------------------------------------------------------------------------------------------------------------------------------------------------------------------------------------------------------------------------------------------------------------------------------------------------
(PID.TID 0000.0001) //     18 --------------------------------------------------------------------------------------------------------------------------------------------------------------------------------------------------------------------------------------------------------------------------------------------------------------------------------------------------------------------------------
(PID.TID 0000.0001) //     17 --------------------------------------------------------------------------------------------------------------------------------------------------------------------------------------------------------------------------------------------------------------------------------------------------------------------------------------------------------------------------------
(PID.TID 0000.0001) //     16 --------------------------------------------------------------------------------------------------------------------------------------------------------------------------------------------------------------------------------------------------------------------------------------------------------------------------------------------------------------------------------
(PID.TID 0000.0001) //     15 --------------------------------------------------------------------------------------------------------------------------------------------------------------------------------------------------------------------------------------------------------------------------------------------------------------------------------------------------------------------------------
(PID.TID 0000.0001) //     14 --------------------------------------------------------------------------------------------------------------------------------------------------------------------------------------------------------------------------------------------------------------------------------------------------------------------------------------------------------------------------------
(PID.TID 0000.0001) //     13 --------------------------------------------------------------------------------------------------------------------------------------------------------------------------------------------------------------------------------------------------------------------------------------------------------------------------------------------------------------------------------
(PID.TID 0000.0001) //     12 --------------------------------------------------------------------------------------------------------------------------------------------------------------------------------------------------------------------------------------------------------------------------------------------------------------------------------------------------------------------------------
(PID.TID 0000.0001) //     11 --------------------------------------------------------------------------------------------------------------------------------------------------------------------------------------------------------------------------------------------------------------------------------------------------------------------------------------------------------------------------------
(PID.TID 0000.0001) //     10 --------------------------------------------------------------------------------------------------------------------------------------------------------------------------------------------------------------------------------------------------------------------------------------------------------------------------------------------------------------------------------
(PID.TID 0000.0001) //      9 --------------------------------------------------------------------------------------------------------------------------------------------------------------------------------------------------------------------------------------------------------------------------------------------------------------------------------------------------------------------------------
(PID.TID 0000.0001) //      8 --------------------------------------------------------------------------------------------------------------------------------------------------------------------------------------------------------------------------------------------------------------------------------------------------------------------------------------------------------------------------------
(PID.TID 0000.0001) //      7 --------------------------------------------------------------------------------------------------------------------------------------------------------------------------------------------------------------------------------------------------------------------------------------------------------------------------------------------------------------------------------
(PID.TID 0000.0001) //      6 --------------------------------------------------------------------------------------------------------------------------------------------------------------------------------------------------------------------------------------------------------------------------------------------------------------------------------------------------------------------------------
(PID.TID 0000.0001) //      5 --------------------------------------------------------------------------------------------------------------------------------------------------------------------------------------------------------------------------------------------------------------------------------------------------------------------------------------------------------------------------------
(PID.TID 0000.0001) //      4 --------------------------------------------------------------------------------------------------------------------------------------------------------------------------------------------------------------------------------------------------------------------------------------------------------------------------------------------------------------------------------
(PID.TID 0000.0001) //      3 --------------------------------------------------------------------------------------------------------------------------------------------------------------------------------------------------------------------------------------------------------------------------------------------------------------------------------------------------------------------------------
(PID.TID 0000.0001) //      2 --------------------------------------------------------------------------------------------------------------------------------------------------------------------------------------------------------------------------------------------------------------------------------------------------------------------------------------------------------------------------------
(PID.TID 0000.0001) //      1 --------------------------------------------------------------------------------------------------------------------------------------------------------------------------------------------------------------------------------------------------------------------------------------------------------------------------------------------------------------------------------
(PID.TID 0000.0001) //      0 ................................................................................................................................................................................................................................................................................................................................................................................
(PID.TID 0000.0001) //     -1 ................................................................................................................................................................................................................................................................................................................................................................................
(PID.TID 0000.0001) //     -2 ................................................................................................................................................................................................................................................................................................................................................................................
(PID.TID 0000.0001) // =======================================================
(PID.TID 0000.0001) // END OF FIELD                                          =
(PID.TID 0000.0001) // =======================================================
(PID.TID 0000.0001) 
(PID.TID 0000.0001) // =======================================================
(PID.TID 0000.0001) // Field Model Ro_surf (ini_masks_etc)
(PID.TID 0000.0001) // CMIN =          1.000000000000000E+32
(PID.TID 0000.0001) // CMAX =         -1.000000000000000E+32
(PID.TID 0000.0001) // CINT =          0.000000000000000E+00
(PID.TID 0000.0001) // SYMBOLS (CMIN->CMAX): -abcdefghijklmnopqrstuvwxyz+
(PID.TID 0000.0001) //                  0.0: .
(PID.TID 0000.0001) // RANGE I (Lo:Hi:Step):(    -2:   275:     1)
(PID.TID 0000.0001) // RANGE J (Lo:Hi:Step):(   323:    -2:    -1)
(PID.TID 0000.0001) // RANGE K (Lo:Hi:Step):(   1:   1:   1)
(PID.TID 0000.0001) // =======================================================
(PID.TID 0000.0001) // =======================================================
(PID.TID 0000.0001) // END OF FIELD                                          =
(PID.TID 0000.0001) // =======================================================
(PID.TID 0000.0001) 
(PID.TID 0000.0001) // =======================================================
(PID.TID 0000.0001) // Field hFacC at iteration          0
(PID.TID 0000.0001) // CMIN =          1.000000000000000E+00
(PID.TID 0000.0001) // CMAX =          1.000000000000000E+00
(PID.TID 0000.0001) // CINT =          0.000000000000000E+00
(PID.TID 0000.0001) // SYMBOLS (CMIN->CMAX): -abcdefghijklmnopqrstuvwxyz+
(PID.TID 0000.0001) //                  0.0: .
(PID.TID 0000.0001) // RANGE I (Lo:Hi:Step):(    -2:   275:     1)
(PID.TID 0000.0001) // RANGE J (Lo:Hi:Step):(   323:    -2:    -1)
(PID.TID 0000.0001) // RANGE K (Lo:Hi:Step):(   1:   1:   1)
(PID.TID 0000.0001) // =======================================================
(PID.TID 0000.0001) // =======================================================
(PID.TID 0000.0001) // END OF FIELD                                          =
(PID.TID 0000.0001) // =======================================================
(PID.TID 0000.0001) 
(PID.TID 0000.0001) // =======================================================
(PID.TID 0000.0001) // Field hFacW at iteration          0
(PID.TID 0000.0001) // CMIN =          1.000000000000000E+00
(PID.TID 0000.0001) // CMAX =          1.000000000000000E+00
(PID.TID 0000.0001) // CINT =          0.000000000000000E+00
(PID.TID 0000.0001) // SYMBOLS (CMIN->CMAX): -abcdefghijklmnopqrstuvwxyz+
(PID.TID 0000.0001) //                  0.0: .
(PID.TID 0000.0001) // RANGE I (Lo:Hi:Step):(    -2:   275:     1)
(PID.TID 0000.0001) // RANGE J (Lo:Hi:Step):(   323:    -2:    -1)
(PID.TID 0000.0001) // RANGE K (Lo:Hi:Step):(   1:   1:   1)
(PID.TID 0000.0001) // =======================================================
(PID.TID 0000.0001) // =======================================================
(PID.TID 0000.0001) // END OF FIELD                                          =
(PID.TID 0000.0001) // =======================================================
(PID.TID 0000.0001) 
(PID.TID 0000.0001) // =======================================================
(PID.TID 0000.0001) // Field hFacS at iteration          0
(PID.TID 0000.0001) // CMIN =          1.000000000000000E+00
(PID.TID 0000.0001) // CMAX =          1.000000000000000E+00
(PID.TID 0000.0001) // CINT =          0.000000000000000E+00
(PID.TID 0000.0001) // SYMBOLS (CMIN->CMAX): -abcdefghijklmnopqrstuvwxyz+
(PID.TID 0000.0001) //                  0.0: .
(PID.TID 0000.0001) // RANGE I (Lo:Hi:Step):(    -2:   275:     1)
(PID.TID 0000.0001) // RANGE J (Lo:Hi:Step):(   323:    -2:    -1)
(PID.TID 0000.0001) // RANGE K (Lo:Hi:Step):(   1:   1:   1)
(PID.TID 0000.0001) // =======================================================
(PID.TID 0000.0001) // =======================================================
(PID.TID 0000.0001) // END OF FIELD                                          =
(PID.TID 0000.0001) // =======================================================
(PID.TID 0000.0001) 
(PID.TID 0000.0001) GAD_INIT_FIXED: GAD_OlMinSize=  1  0  1
(PID.TID 0000.0001) 
(PID.TID 0000.0001) // ===================================
(PID.TID 0000.0001) // GAD parameters :
(PID.TID 0000.0001) // ===================================
(PID.TID 0000.0001) tempAdvScheme =   /* Temp. Horiz.Advection scheme selector */
(PID.TID 0000.0001)                       2
(PID.TID 0000.0001)     ;
(PID.TID 0000.0001) tempVertAdvScheme =   /* Temp. Vert. Advection scheme selector */
(PID.TID 0000.0001)                       2
(PID.TID 0000.0001)     ;
(PID.TID 0000.0001) tempMultiDimAdvec =   /* use Muti-Dim Advec method for Temp */
(PID.TID 0000.0001)                   F
(PID.TID 0000.0001)     ;
(PID.TID 0000.0001) tempSOM_Advection = /* use 2nd Order Moment Advection for Temp */
(PID.TID 0000.0001)                   F
(PID.TID 0000.0001)     ;
(PID.TID 0000.0001) AdamsBashforthGt = /* apply Adams-Bashforth extrapolation on Gt */
(PID.TID 0000.0001)                   T
(PID.TID 0000.0001)     ;
(PID.TID 0000.0001) AdamsBashforth_T = /* apply Adams-Bashforth extrapolation on Temp */
(PID.TID 0000.0001)                   F
(PID.TID 0000.0001)     ;
(PID.TID 0000.0001) saltAdvScheme =   /* Salt. Horiz.advection scheme selector */
(PID.TID 0000.0001)                       2
(PID.TID 0000.0001)     ;
(PID.TID 0000.0001) saltVertAdvScheme =   /* Salt. Vert. Advection scheme selector */
(PID.TID 0000.0001)                       2
(PID.TID 0000.0001)     ;
(PID.TID 0000.0001) saltMultiDimAdvec =   /* use Muti-Dim Advec method for Salt */
(PID.TID 0000.0001)                   F
(PID.TID 0000.0001)     ;
(PID.TID 0000.0001) saltSOM_Advection = /* use 2nd Order Moment Advection for Salt */
(PID.TID 0000.0001)                   F
(PID.TID 0000.0001)     ;
(PID.TID 0000.0001) AdamsBashforthGs = /* apply Adams-Bashforth extrapolation on Gs */
(PID.TID 0000.0001)                   T
(PID.TID 0000.0001)     ;
(PID.TID 0000.0001) AdamsBashforth_S = /* apply Adams-Bashforth extrapolation on Salt */
(PID.TID 0000.0001)                   F
(PID.TID 0000.0001)     ;
(PID.TID 0000.0001) // ===================================
(PID.TID 0000.0001) Empty tile bi,bj=     1    14
(PID.TID 0000.0001) Empty tile bi,bj=     2    14
(PID.TID 0000.0001) Empty tile bi,bj=     3    14
(PID.TID 0000.0001) Empty tile bi,bj=     4    14
(PID.TID 0000.0001) Empty tile bi,bj=     5    14
(PID.TID 0000.0001) Empty tile bi,bj=     6    14
(PID.TID 0000.0001) Empty tile bi,bj=     7    14
(PID.TID 0000.0001) Empty tile bi,bj=     8    14
(PID.TID 0000.0001) Empty tile bi,bj=     9    14
(PID.TID 0000.0001) Empty tile bi,bj=    10    14
(PID.TID 0000.0001) Empty tile bi,bj=    11    14
(PID.TID 0000.0001) Empty tile bi,bj=    12    14
(PID.TID 0000.0001) Empty tile bi,bj=    13    14
(PID.TID 0000.0001) Empty tile bi,bj=    14    14
(PID.TID 0000.0001) Empty tile bi,bj=    15    14
(PID.TID 0000.0001) Empty tile bi,bj=    16    14
(PID.TID 0000.0001) Empty tile bi,bj=     1    15
(PID.TID 0000.0001) Empty tile bi,bj=     2    15
(PID.TID 0000.0001) Empty tile bi,bj=     3    15
(PID.TID 0000.0001) Empty tile bi,bj=     4    15
(PID.TID 0000.0001) Empty tile bi,bj=     5    15
(PID.TID 0000.0001) Empty tile bi,bj=     6    15
(PID.TID 0000.0001) Empty tile bi,bj=     7    15
(PID.TID 0000.0001) Empty tile bi,bj=     8    15
(PID.TID 0000.0001) Empty tile bi,bj=     9    15
(PID.TID 0000.0001) Empty tile bi,bj=    10    15
(PID.TID 0000.0001) Empty tile bi,bj=    11    15
(PID.TID 0000.0001) Empty tile bi,bj=    12    15
(PID.TID 0000.0001) Empty tile bi,bj=    13    15
(PID.TID 0000.0001) Empty tile bi,bj=    14    15
(PID.TID 0000.0001) Empty tile bi,bj=    15    15
(PID.TID 0000.0001) Empty tile bi,bj=    16    15
(PID.TID 0000.0001) Empty tile bi,bj=     1    16
(PID.TID 0000.0001) Empty tile bi,bj=     2    16
(PID.TID 0000.0001) Empty tile bi,bj=     3    16
(PID.TID 0000.0001) Empty tile bi,bj=     4    16
(PID.TID 0000.0001) Empty tile bi,bj=     5    16
(PID.TID 0000.0001) Empty tile bi,bj=     6    16
(PID.TID 0000.0001) Empty tile bi,bj=     7    16
(PID.TID 0000.0001) Empty tile bi,bj=     8    16
(PID.TID 0000.0001) Empty tile bi,bj=     9    16
(PID.TID 0000.0001) Empty tile bi,bj=    10    16
(PID.TID 0000.0001) Empty tile bi,bj=    11    16
(PID.TID 0000.0001) Empty tile bi,bj=    12    16
(PID.TID 0000.0001) Empty tile bi,bj=    13    16
(PID.TID 0000.0001) Empty tile bi,bj=    14    16
(PID.TID 0000.0001) Empty tile bi,bj=    15    16
(PID.TID 0000.0001) Empty tile bi,bj=    16    16
(PID.TID 0000.0001) 
(PID.TID 0000.0001) %MON fCori_max                    =   6.9540004700000E-04
(PID.TID 0000.0001) %MON fCori_min                    =   6.8899004700000E-04
(PID.TID 0000.0001) %MON fCori_mean                   =   6.9219504702187E-04
(PID.TID 0000.0001) %MON fCori_sd                     =   1.8561992099325E-06
(PID.TID 0000.0001) %MON fCoriG_max                   =   6.9539000000000E-04
(PID.TID 0000.0001) %MON fCoriG_min                   =   6.8898000000000E-04
(PID.TID 0000.0001) %MON fCoriG_mean                  =   6.9218500000000E-04
(PID.TID 0000.0001) %MON fCoriG_sd                    =   1.8561992100509E-06
(PID.TID 0000.0001) %MON fCoriCos_max                 =   0.0000000000000E+00
(PID.TID 0000.0001) %MON fCoriCos_min                 =   0.0000000000000E+00
(PID.TID 0000.0001) %MON fCoriCos_mean                =   0.0000000000000E+00
(PID.TID 0000.0001) %MON fCoriCos_sd                  =   0.0000000000000E+00
(PID.TID 0000.0001) INI_CG2D: CG2D normalisation factor =  3.0445454545454458E-05
(PID.TID 0000.0001) 
(PID.TID 0000.0001) // =======================================================
(PID.TID 0000.0001) // Model configuration
(PID.TID 0000.0001) // =======================================================
(PID.TID 0000.0001) //
(PID.TID 0000.0001) // "Physical" paramters ( PARM01 in namelist )
(PID.TID 0000.0001) //
(PID.TID 0000.0001) buoyancyRelation = /* Type of relation to get Buoyancy */
(PID.TID 0000.0001)               'OCEANIC'
(PID.TID 0000.0001)     ;
(PID.TID 0000.0001) fluidIsAir   =  /* fluid major constituent is Air */
(PID.TID 0000.0001)                   F
(PID.TID 0000.0001)     ;
(PID.TID 0000.0001) fluidIsWater =  /* fluid major constituent is Water */
(PID.TID 0000.0001)                   T
(PID.TID 0000.0001)     ;
(PID.TID 0000.0001) usingPCoords =  /* use p (or p*) vertical coordinate */
(PID.TID 0000.0001)                   F
(PID.TID 0000.0001)     ;
(PID.TID 0000.0001) usingZCoords =  /* use z (or z*) vertical coordinate */
(PID.TID 0000.0001)                   T
(PID.TID 0000.0001)     ;
(PID.TID 0000.0001) tRef =   /* Reference temperature profile ( oC or K ) */
(PID.TID 0000.0001)     3 @  1.660000000000000E+01,             /* K =  1:  3 */
(PID.TID 0000.0001)     7 @  1.650000000000000E+01,             /* K =  4: 10 */
(PID.TID 0000.0001)     2 @  1.640000000000000E+01,             /* K = 11: 12 */
(PID.TID 0000.0001)                 1.630000000000000E+01,      /* K = 13 */
(PID.TID 0000.0001)                 1.610000000000000E+01,      /* K = 14 */
(PID.TID 0000.0001)                 1.590000000000000E+01,      /* K = 15 */
(PID.TID 0000.0001)                 1.570000000000000E+01,      /* K = 16 */
(PID.TID 0000.0001)                 1.530000000000000E+01,      /* K = 17 */
(PID.TID 0000.0001)                 1.480000000000000E+01,      /* K = 18 */
(PID.TID 0000.0001)                 1.420000000000000E+01,      /* K = 19 */
(PID.TID 0000.0001)                 1.350000000000000E+01,      /* K = 20 */
(PID.TID 0000.0001)                 1.260000000000000E+01,      /* K = 21 */
(PID.TID 0000.0001)                 1.170000000000000E+01,      /* K = 22 */
(PID.TID 0000.0001)                 1.100000000000000E+01,      /* K = 23 */
(PID.TID 0000.0001)                 1.040000000000000E+01,      /* K = 24 */
(PID.TID 0000.0001)                 9.699999999999999E+00,      /* K = 25 */
(PID.TID 0000.0001)                 9.199999999999999E+00,      /* K = 26 */
(PID.TID 0000.0001)                 8.800000000000001E+00,      /* K = 27 */
(PID.TID 0000.0001)                 8.400000000000000E+00,      /* K = 28 */
(PID.TID 0000.0001)                 8.000000000000000E+00,      /* K = 29 */
(PID.TID 0000.0001)                 7.500000000000000E+00,      /* K = 30 */
(PID.TID 0000.0001)                 7.100000000000000E+00,      /* K = 31 */
(PID.TID 0000.0001)                 6.700000000000000E+00,      /* K = 32 */
(PID.TID 0000.0001)                 6.400000000000000E+00,      /* K = 33 */
(PID.TID 0000.0001)                 6.100000000000000E+00,      /* K = 34 */
(PID.TID 0000.0001)                 5.800000000000000E+00,      /* K = 35 */
(PID.TID 0000.0001)                 5.500000000000000E+00,      /* K = 36 */
(PID.TID 0000.0001)                 5.200000000000000E+00,      /* K = 37 */
(PID.TID 0000.0001)                 4.800000000000000E+00,      /* K = 38 */
(PID.TID 0000.0001)                 4.500000000000000E+00,      /* K = 39 */
(PID.TID 0000.0001)                 4.200000000000000E+00       /* K = 40 */
(PID.TID 0000.0001)     ;
(PID.TID 0000.0001) sRef =   /* Reference salinity profile ( g/kg ) */
(PID.TID 0000.0001)    17 @  3.360000000000000E+01,             /* K =  1: 17 */
(PID.TID 0000.0001)     3 @  3.370000000000000E+01,             /* K = 18: 20 */
(PID.TID 0000.0001)     3 @  3.380000000000000E+01,             /* K = 21: 23 */
(PID.TID 0000.0001)     2 @  3.390000000000000E+01,             /* K = 24: 25 */
(PID.TID 0000.0001)     2 @  3.400000000000000E+01,             /* K = 26: 27 */
(PID.TID 0000.0001)                 3.410000000000000E+01,      /* K = 28 */
(PID.TID 0000.0001)     4 @  3.420000000000000E+01,             /* K = 29: 32 */
(PID.TID 0000.0001)     3 @  3.430000000000000E+01,             /* K = 33: 35 */
(PID.TID 0000.0001)     4 @  3.440000000000000E+01,             /* K = 36: 39 */
(PID.TID 0000.0001)                 3.450000000000000E+01       /* K = 40 */
(PID.TID 0000.0001)     ;
(PID.TID 0000.0001) rhoRef =   /* Density vertical profile from (Ref,sRef)( kg/m^3 ) */
(PID.TID 0000.0001)     3 @  9.998000000000000E+02,             /* K =  1:  3 */
(PID.TID 0000.0001)     7 @  9.998199959999999E+02,             /* K =  4: 10 */
(PID.TID 0000.0001)     2 @  9.998399919999999E+02,             /* K = 11: 12 */
(PID.TID 0000.0001)                 9.998599879999999E+02,      /* K = 13 */
(PID.TID 0000.0001)                 9.998999799999999E+02,      /* K = 14 */
(PID.TID 0000.0001)                 9.999399720000000E+02,      /* K = 15 */
(PID.TID 0000.0001)                 9.999799640000000E+02,      /* K = 16 */
(PID.TID 0000.0001)                 1.000059948000000E+03,      /* K = 17 */
(PID.TID 0000.0001)                 1.000233913200000E+03,      /* K = 18 */
(PID.TID 0000.0001)                 1.000353889200000E+03,      /* K = 19 */
(PID.TID 0000.0001)                 1.000493861200000E+03,      /* K = 20 */
(PID.TID 0000.0001)                 1.000747810400000E+03,      /* K = 21 */
(PID.TID 0000.0001)                 1.000927774400000E+03,      /* K = 22 */
(PID.TID 0000.0001)                 1.001067746400000E+03,      /* K = 23 */
(PID.TID 0000.0001)                 1.001261707600000E+03,      /* K = 24 */
(PID.TID 0000.0001)                 1.001401679600000E+03,      /* K = 25 */
(PID.TID 0000.0001)                 1.001575644800000E+03,      /* K = 26 */
(PID.TID 0000.0001)                 1.001655628800000E+03,      /* K = 27 */
(PID.TID 0000.0001)                 1.001809598000000E+03,      /* K = 28 */
(PID.TID 0000.0001)                 1.001963567200000E+03,      /* K = 29 */
(PID.TID 0000.0001)                 1.002063547200000E+03,      /* K = 30 */
(PID.TID 0000.0001)                 1.002143531200000E+03,      /* K = 31 */
(PID.TID 0000.0001)                 1.002223515200000E+03,      /* K = 32 */
(PID.TID 0000.0001)                 1.002357488400000E+03,      /* K = 33 */
(PID.TID 0000.0001)                 1.002417476400000E+03,      /* K = 34 */
(PID.TID 0000.0001)                 1.002477464400000E+03,      /* K = 35 */
(PID.TID 0000.0001)                 1.002611437600000E+03,      /* K = 36 */
(PID.TID 0000.0001)                 1.002671425600000E+03,      /* K = 37 */
(PID.TID 0000.0001)                 1.002751409600000E+03,      /* K = 38 */
(PID.TID 0000.0001)                 1.002811397600000E+03,      /* K = 39 */
(PID.TID 0000.0001)                 1.002945370800000E+03       /* K = 40 */
(PID.TID 0000.0001)     ;
(PID.TID 0000.0001) dBdrRef = /* Vertical grad. of reference buoyancy [(m/s/r)^2] */
(PID.TID 0000.0001)     3 @  0.000000000000000E+00,             /* K =  1:  3 */
(PID.TID 0000.0001)                 7.694117647058936E-05,      /* K =  4 */
(PID.TID 0000.0001)     6 @  0.000000000000000E+00,             /* K =  5: 10 */
(PID.TID 0000.0001)                 3.809708737864132E-05,      /* K = 11 */
(PID.TID 0000.0001)                 0.000000000000000E+00,      /* K = 12 */
(PID.TID 0000.0001)                 3.114285714285648E-05,      /* K = 13 */
(PID.TID 0000.0001)                 5.646043165467606E-05,      /* K = 14 */
(PID.TID 0000.0001)                 5.129411764705909E-05,      /* K = 15 */
(PID.TID 0000.0001)                 4.643786982248546E-05,      /* K = 16 */
(PID.TID 0000.0001)                 8.393582887700505E-05,      /* K = 17 */
(PID.TID 0000.0001)                 1.657223300970884E-04,      /* K = 18 */
(PID.TID 0000.0001)                 1.032631578947371E-04,      /* K = 19 */
(PID.TID 0000.0001)                 1.089999999999999E-04,      /* K = 20 */
(PID.TID 0000.0001)                 1.792618705035942E-04,      /* K = 21 */
(PID.TID 0000.0001)                 1.150358306188925E-04,      /* K = 22 */
(PID.TID 0000.0001)                 8.102654867256628E-05,      /* K = 23 */
(PID.TID 0000.0001)                 1.015008000000005E-04,      /* K = 24 */
(PID.TID 0000.0001)                 6.634782608695662E-05,      /* K = 25 */
(PID.TID 0000.0001)                 7.470196936542715E-05,      /* K = 26 */
(PID.TID 0000.0001)                 3.108118811881178E-05,      /* K = 27 */
(PID.TID 0000.0001)                 5.414838709677459E-05,      /* K = 28 */
(PID.TID 0000.0001)                 4.905000000000037E-05,      /* K = 29 */
(PID.TID 0000.0001)                 2.885294117647059E-05,      /* K = 30 */
(PID.TID 0000.0001)                 2.090013315579230E-05,      /* K = 31 */
(PID.TID 0000.0001)                 1.891084337349396E-05,      /* K = 32 */
(PID.TID 0000.0001)                 2.867044711014086E-05,      /* K = 33 */
(PID.TID 0000.0001)                 1.163241106719370E-05,      /* K = 34 */
(PID.TID 0000.0001)                 1.052951699463327E-05,      /* K = 35 */
(PID.TID 0000.0001)                 2.128809716599207E-05,      /* K = 36 */
(PID.TID 0000.0001)                 8.630498533724336E-06,      /* K = 37 */
(PID.TID 0000.0001)                 1.041539482415396E-05,      /* K = 38 */
(PID.TID 0000.0001)                 7.083032490974726E-06,      /* K = 39 */
(PID.TID 0000.0001)                 1.433522355507099E-05       /* K = 40 */
(PID.TID 0000.0001)     ;
(PID.TID 0000.0001) useStrainTensionVisc= /* Use StrainTension Form of Viscous Operator */
(PID.TID 0000.0001)                   F
(PID.TID 0000.0001)     ;
(PID.TID 0000.0001) useVariableVisc = /* Use variable horizontal viscosity */
(PID.TID 0000.0001)                   F
(PID.TID 0000.0001)     ;
(PID.TID 0000.0001) useHarmonicVisc = /* Use harmonic horizontal viscosity */
(PID.TID 0000.0001)                   T
(PID.TID 0000.0001)     ;
(PID.TID 0000.0001) useBiharmonicVisc= /* Use biharmonic horiz.  viscosity */
(PID.TID 0000.0001)                   F
(PID.TID 0000.0001)     ;
(PID.TID 0000.0001) useSmag3D = /* Use isotropic 3-D Smagorinsky viscosity */
(PID.TID 0000.0001)                   F
(PID.TID 0000.0001)     ;
(PID.TID 0000.0001) viscAh  =   /* Lateral harmonic viscosity ( m^2/s ) */
(PID.TID 0000.0001)                 1.000000000000000E+02
(PID.TID 0000.0001)     ;
(PID.TID 0000.0001) viscA4  =   /* Lateral biharmonic viscosity ( m^4/s ) */
(PID.TID 0000.0001)                 0.000000000000000E+00
(PID.TID 0000.0001)     ;
(PID.TID 0000.0001) no_slip_sides =  /* Viscous BCs: No-slip sides */
(PID.TID 0000.0001)                   F
(PID.TID 0000.0001)     ;
(PID.TID 0000.0001) sideDragFactor = /* side-drag scaling factor (non-dim) */
(PID.TID 0000.0001)                 2.000000000000000E+00
(PID.TID 0000.0001)     ;
(PID.TID 0000.0001) viscArNr = /* vertical profile of vertical viscosity ( m^2/s )*/
(PID.TID 0000.0001)    40 @  1.000000000000000E-05              /* K =  1: 40 */
(PID.TID 0000.0001)     ;
(PID.TID 0000.0001) no_slip_bottom =  /* Viscous BCs: No-slip bottom */
(PID.TID 0000.0001)                   F
(PID.TID 0000.0001)     ;
(PID.TID 0000.0001) bottomVisc_pCell = /* Partial-cell in bottom Visc. BC */
(PID.TID 0000.0001)                   F
(PID.TID 0000.0001)     ;
(PID.TID 0000.0001) bottomDragLinear = /* linear bottom-drag coefficient ( m/s ) */
(PID.TID 0000.0001)                 0.000000000000000E+00
(PID.TID 0000.0001)     ;
(PID.TID 0000.0001) bottomDragQuadratic = /* quadratic bottom-drag coefficient (-) */
(PID.TID 0000.0001)                 0.000000000000000E+00
(PID.TID 0000.0001)     ;
(PID.TID 0000.0001) selectBotDragQuadr = /* select quadratic bottom drag options */
(PID.TID 0000.0001)                      -1
(PID.TID 0000.0001)     ;
(PID.TID 0000.0001) diffKhT =   /* Laplacian diffusion of heat laterally ( m^2/s ) */
(PID.TID 0000.0001)                 1.000000000000000E+02
(PID.TID 0000.0001)     ;
(PID.TID 0000.0001) diffK4T =   /* Biharmonic diffusion of heat laterally ( m^4/s ) */
(PID.TID 0000.0001)                 0.000000000000000E+00
(PID.TID 0000.0001)     ;
(PID.TID 0000.0001) diffKhS =   /* Laplacian diffusion of salt laterally ( m^2/s ) */
(PID.TID 0000.0001)                 1.000000000000000E+02
(PID.TID 0000.0001)     ;
(PID.TID 0000.0001) diffK4S =   /* Biharmonic diffusion of salt laterally ( m^4/s ) */
(PID.TID 0000.0001)                 0.000000000000000E+00
(PID.TID 0000.0001)     ;
(PID.TID 0000.0001) diffKrNrT = /* vertical profile of vertical diffusion of Temp ( m^2/s )*/
(PID.TID 0000.0001)    40 @  1.000000000000000E-05              /* K =  1: 40 */
(PID.TID 0000.0001)     ;
(PID.TID 0000.0001) diffKrNrS = /* vertical profile of vertical diffusion of Salt ( m^2/s )*/
(PID.TID 0000.0001)    40 @  1.000000000000000E-05              /* K =  1: 40 */
(PID.TID 0000.0001)     ;
(PID.TID 0000.0001) diffKrBL79surf = /* Surface diffusion for Bryan and Lewis 79 ( m^2/s ) */
(PID.TID 0000.0001)                 0.000000000000000E+00
(PID.TID 0000.0001)     ;
(PID.TID 0000.0001) diffKrBL79deep = /* Deep diffusion for Bryan and Lewis 1979 ( m^2/s ) */
(PID.TID 0000.0001)                 0.000000000000000E+00
(PID.TID 0000.0001)     ;
(PID.TID 0000.0001) diffKrBL79scl = /* Depth scale for Bryan and Lewis 1979 ( m ) */
(PID.TID 0000.0001)                 2.000000000000000E+02
(PID.TID 0000.0001)     ;
(PID.TID 0000.0001) diffKrBL79Ho = /* Turning depth for Bryan and Lewis 1979 ( m ) */
(PID.TID 0000.0001)                -2.000000000000000E+03
(PID.TID 0000.0001)     ;
(PID.TID 0000.0001) ivdc_kappa = /* Implicit Vertical Diffusivity for Convection ( m^2/s) */
(PID.TID 0000.0001)                 1.000000000000000E+00
(PID.TID 0000.0001)     ;
(PID.TID 0000.0001) hMixCriteria=  /* Criteria for mixed-layer diagnostic */
(PID.TID 0000.0001)                -8.000000000000000E-01
(PID.TID 0000.0001)     ;
(PID.TID 0000.0001) dRhoSmall =  /* Parameter for mixed-layer diagnostic */
(PID.TID 0000.0001)                 1.000000000000000E-06
(PID.TID 0000.0001)     ;
(PID.TID 0000.0001) hMixSmooth=  /* Smoothing parameter for mixed-layer diagnostic */
(PID.TID 0000.0001)                 0.000000000000000E+00
(PID.TID 0000.0001)     ;
(PID.TID 0000.0001) eosType =  /* Type of Equation of State */
(PID.TID 0000.0001)               'LINEAR'
(PID.TID 0000.0001)     ;
(PID.TID 0000.0001) tAlpha = /* Linear EOS thermal expansion coefficient ( 1/oC ) */
(PID.TID 0000.0001)                 2.000000000000000E-04
(PID.TID 0000.0001)     ;
(PID.TID 0000.0001) sBeta  = /* Linear EOS haline contraction coefficient ( 1/(g/kg) ) */
(PID.TID 0000.0001)                 7.400000000000000E-04
(PID.TID 0000.0001)     ;
(PID.TID 0000.0001) rhoNil    = /* Reference density for Linear EOS ( kg/m^3 ) */
(PID.TID 0000.0001)                 9.998000000000000E+02
(PID.TID 0000.0001)     ;
(PID.TID 0000.0001) selectP_inEOS_Zc = /* select pressure to use in EOS (0,1,2,3) */
(PID.TID 0000.0001)                       0
(PID.TID 0000.0001)     0= -g*rhoConst*z ; 1= pRef (from tRef,sRef); 2= Hyd P ; 3= Hyd+NH P
(PID.TID 0000.0001)     ;
(PID.TID 0000.0001) surf_pRef = /* Surface reference pressure ( Pa ) */
(PID.TID 0000.0001)                 1.013250000000000E+05
(PID.TID 0000.0001)     ;
(PID.TID 0000.0001) HeatCapacity_Cp =  /* Specific heat capacity ( J/kg/K ) */
(PID.TID 0000.0001)                 3.994000000000000E+03
(PID.TID 0000.0001)     ;
(PID.TID 0000.0001) celsius2K = /* 0 degree Celsius converted to Kelvin ( K ) */
(PID.TID 0000.0001)                 2.731500000000000E+02
(PID.TID 0000.0001)     ;
(PID.TID 0000.0001) rhoConst  = /* Reference density (Boussinesq)  ( kg/m^3 ) */
(PID.TID 0000.0001)                 9.998000000000000E+02
(PID.TID 0000.0001)     ;
(PID.TID 0000.0001) rhoFacC = /* normalized Reference density @ cell-Center (-) */
(PID.TID 0000.0001)    40 @  1.000000000000000E+00              /* K =  1: 40 */
(PID.TID 0000.0001)     ;
(PID.TID 0000.0001) rhoFacF = /* normalized Reference density @ W-Interface (-) */
(PID.TID 0000.0001)    41 @  1.000000000000000E+00              /* K =  1: 41 */
(PID.TID 0000.0001)     ;
(PID.TID 0000.0001) rhoConstFresh = /* Fresh-water reference density ( kg/m^3 ) */
(PID.TID 0000.0001)                 9.998000000000000E+02
(PID.TID 0000.0001)     ;
(PID.TID 0000.0001) gravity =   /* Gravitational acceleration ( m/s^2 ) */
(PID.TID 0000.0001)                 9.810000000000000E+00
(PID.TID 0000.0001)     ;
(PID.TID 0000.0001) gBaro =   /* Barotropic gravity ( m/s^2 ) */
(PID.TID 0000.0001)                 9.810000000000000E+00
(PID.TID 0000.0001)     ;
(PID.TID 0000.0001) gravFacC = /* gravity factor (vs surf.) @ cell-Center (-) */
(PID.TID 0000.0001)    40 @  1.000000000000000E+00              /* K =  1: 40 */
(PID.TID 0000.0001)     ;
(PID.TID 0000.0001) gravFacF = /* gravity factor (vs surf.) @ W-Interface (-) */
(PID.TID 0000.0001)    41 @  1.000000000000000E+00              /* K =  1: 41 */
(PID.TID 0000.0001)     ;
(PID.TID 0000.0001) rotationPeriod =   /* Rotation Period ( s ) */
(PID.TID 0000.0001)                 8.616400000000000E+04
(PID.TID 0000.0001)     ;
(PID.TID 0000.0001) omega =   /* Angular velocity ( rad/s ) */
(PID.TID 0000.0001)                 7.292123516990375E-05
(PID.TID 0000.0001)     ;
(PID.TID 0000.0001) f0 =   /* Reference coriolis parameter ( 1/s ) */
(PID.TID 0000.0001)                 6.940000000000000E-04
(PID.TID 0000.0001)     ;
(PID.TID 0000.0001) beta =   /* Beta ( 1/(m.s) ) */
(PID.TID 0000.0001)                 9.999999999999999E-12
(PID.TID 0000.0001)     ;
(PID.TID 0000.0001) fPrime =   /* Second coriolis parameter ( 1/s ) */
(PID.TID 0000.0001)                 0.000000000000000E+00
(PID.TID 0000.0001)     ;
(PID.TID 0000.0001) rigidLid =   /* Rigid lid on/off flag */
(PID.TID 0000.0001)                   F
(PID.TID 0000.0001)     ;
(PID.TID 0000.0001) implicitFreeSurface =   /* Implicit free surface on/off flag */
(PID.TID 0000.0001)                   T
(PID.TID 0000.0001)     ;
(PID.TID 0000.0001) freeSurfFac =   /* Implicit free surface factor */
(PID.TID 0000.0001)                 1.000000000000000E+00
(PID.TID 0000.0001)     ;
(PID.TID 0000.0001) implicSurfPress =  /* Surface Pressure implicit factor (0-1) */
(PID.TID 0000.0001)                 1.000000000000000E+00
(PID.TID 0000.0001)     ;
(PID.TID 0000.0001) implicDiv2DFlow =  /* Barot. Flow Div. implicit factor (0-1) */
(PID.TID 0000.0001)                 1.000000000000000E+00
(PID.TID 0000.0001)     ;
(PID.TID 0000.0001) uniformLin_PhiSurf = /* use uniform Bo_surf on/off flag */
(PID.TID 0000.0001)                   T
(PID.TID 0000.0001)     ;
(PID.TID 0000.0001) uniformFreeSurfLev = /* free-surface level-index is uniform */
(PID.TID 0000.0001)                   T
(PID.TID 0000.0001)     ;
(PID.TID 0000.0001) sIceLoadFac =  /* scale factor for sIceLoad (0-1) */
(PID.TID 0000.0001)                 1.000000000000000E+00
(PID.TID 0000.0001)     ;
(PID.TID 0000.0001) hFacMin =   /* minimum partial cell factor (hFac) */
(PID.TID 0000.0001)                 1.000000000000000E+00
(PID.TID 0000.0001)     ;
(PID.TID 0000.0001) hFacMinDr = /* minimum partial cell thickness ( m) */
(PID.TID 0000.0001)                 0.000000000000000E+00
(PID.TID 0000.0001)     ;
(PID.TID 0000.0001) exactConserv =  /* Exact Volume Conservation on/off flag */
(PID.TID 0000.0001)                   T
(PID.TID 0000.0001)     ;
(PID.TID 0000.0001) linFSConserveTr = /* Tracer correction for Lin Free Surface on/off flag */
(PID.TID 0000.0001)                   F
(PID.TID 0000.0001)     ;
(PID.TID 0000.0001) nonlinFreeSurf = /* Non-linear Free Surf. options (-1,0,1,2,3)*/
(PID.TID 0000.0001)                       0
(PID.TID 0000.0001)      -1,0= Off ; 1,2,3= On, 2=+rescale gU,gV, 3=+update cg2d solv.
(PID.TID 0000.0001)     ;
(PID.TID 0000.0001) hFacInf =   /* lower threshold for hFac (nonlinFreeSurf only)*/
(PID.TID 0000.0001)                 2.000000000000000E-01
(PID.TID 0000.0001)     ;
(PID.TID 0000.0001) hFacSup =   /* upper threshold for hFac (nonlinFreeSurf only)*/
(PID.TID 0000.0001)                 2.000000000000000E+00
(PID.TID 0000.0001)     ;
(PID.TID 0000.0001) select_rStar = /* r* Vertical coord. options (=0 r coord.; >0 uses r*)*/
(PID.TID 0000.0001)                       0
(PID.TID 0000.0001)     ;
(PID.TID 0000.0001) useRealFreshWaterFlux = /* Real Fresh Water Flux on/off flag*/
(PID.TID 0000.0001)                   F
(PID.TID 0000.0001)     ;
(PID.TID 0000.0001) temp_EvPrRn = /* Temp. of Evap/Prec/R (UNSET=use local T)(oC)*/
(PID.TID 0000.0001)                 1.234567000000000E+05
(PID.TID 0000.0001)     ;
(PID.TID 0000.0001) salt_EvPrRn = /* Salin. of Evap/Prec/R (UNSET=use local S)(g/kg)*/
(PID.TID 0000.0001)                 0.000000000000000E+00
(PID.TID 0000.0001)     ;
(PID.TID 0000.0001) selectAddFluid = /* option for mass source/sink of fluid (=0: off) */
(PID.TID 0000.0001)                       0
(PID.TID 0000.0001)     ;
(PID.TID 0000.0001) temp_addMass = /* Temp. of addMass array (UNSET=use local T)(oC)*/
(PID.TID 0000.0001)                 1.234567000000000E+05
(PID.TID 0000.0001)     ;
(PID.TID 0000.0001) salt_addMass = /* Salin. of addMass array (UNSET=use local S)(g/kg)*/
(PID.TID 0000.0001)                 0.000000000000000E+00
(PID.TID 0000.0001)     ;
(PID.TID 0000.0001) convertFW2Salt = /* convert F.W. Flux to Salt Flux (-1=use local S)(g/kg)*/
(PID.TID 0000.0001)                 3.500000000000000E+01
(PID.TID 0000.0001)     ;
(PID.TID 0000.0001) use3Dsolver = /* use 3-D pressure solver on/off flag */
(PID.TID 0000.0001)                   F
(PID.TID 0000.0001)     ;
(PID.TID 0000.0001) nonHydrostatic =  /* Non-Hydrostatic on/off flag */
(PID.TID 0000.0001)                   F
(PID.TID 0000.0001)     ;
(PID.TID 0000.0001) nh_Am2 = /* Non-Hydrostatic terms scaling factor */
(PID.TID 0000.0001)                 1.000000000000000E+00
(PID.TID 0000.0001)     ;
(PID.TID 0000.0001) implicitNHPress = /* Non-Hyd Pressure implicit factor (0-1)*/
(PID.TID 0000.0001)                 1.000000000000000E+00
(PID.TID 0000.0001)     ;
(PID.TID 0000.0001) selectNHfreeSurf = /* Non-Hyd (free-)Surface option */
(PID.TID 0000.0001)                       0
(PID.TID 0000.0001)     ;
(PID.TID 0000.0001) quasiHydrostatic = /* Quasi-Hydrostatic on/off flag */
(PID.TID 0000.0001)                   F
(PID.TID 0000.0001)     ;
(PID.TID 0000.0001) calc_wVelocity = /* vertical velocity calculation on/off flag */
(PID.TID 0000.0001)                   T
(PID.TID 0000.0001)     ;
(PID.TID 0000.0001) momStepping =  /* Momentum equation on/off flag */
(PID.TID 0000.0001)                   T
(PID.TID 0000.0001)     ;
(PID.TID 0000.0001) vectorInvariantMomentum= /* Vector-Invariant Momentum on/off */
(PID.TID 0000.0001)                   F
(PID.TID 0000.0001)     ;
(PID.TID 0000.0001) momAdvection =  /* Momentum advection on/off flag */
(PID.TID 0000.0001)                   T
(PID.TID 0000.0001)     ;
(PID.TID 0000.0001) momViscosity =  /* Momentum viscosity on/off flag */
(PID.TID 0000.0001)                   T
(PID.TID 0000.0001)     ;
(PID.TID 0000.0001) momImplVertAdv= /* Momentum implicit vert. advection on/off*/
(PID.TID 0000.0001)                   F
(PID.TID 0000.0001)     ;
(PID.TID 0000.0001) implicitViscosity = /* Implicit viscosity on/off flag */
(PID.TID 0000.0001)                   F
(PID.TID 0000.0001)     ;
(PID.TID 0000.0001) selectImplicitDrag= /* Implicit bot Drag options (0,1,2)*/
(PID.TID 0000.0001)                       0
(PID.TID 0000.0001)     0= Expl. ; 1= Impl. on provis. Vel ; 2= Fully Impl (with surf.P)
(PID.TID 0000.0001)     ;
(PID.TID 0000.0001) selectMetricTerms= /* Metric-Terms on/off flag (=0/1) */
(PID.TID 0000.0001)                       0
(PID.TID 0000.0001)     ;
(PID.TID 0000.0001) useNHMTerms = /* Non-Hydrostatic Metric-Terms on/off */
(PID.TID 0000.0001)                   F
(PID.TID 0000.0001)     ;
(PID.TID 0000.0001) selectCoriMap = /* Coriolis Map options (0,1,2,3)*/
(PID.TID 0000.0001)                       1
(PID.TID 0000.0001)     0= f-Plane ; 1= Beta-Plane ; 2= Spherical ; 3= read from file
(PID.TID 0000.0001)     ;
(PID.TID 0000.0001) select3dCoriScheme= /* 3-D Coriolis on/off flag (=0/1) */
(PID.TID 0000.0001)                       0
(PID.TID 0000.0001)     ;
(PID.TID 0000.0001) useCoriolis =  /* Coriolis on/off flag */
(PID.TID 0000.0001)                   T
(PID.TID 0000.0001)     ;
(PID.TID 0000.0001) useCDscheme =  /* CD scheme on/off flag */
(PID.TID 0000.0001)                   F
(PID.TID 0000.0001)     ;
(PID.TID 0000.0001) selectCoriScheme= /* Scheme selector for Coriolis-Term */
(PID.TID 0000.0001)                       0
(PID.TID 0000.0001)    = 0 : original discretization (simple averaging, no hFac)
(PID.TID 0000.0001)    = 1 : Wet-point averaging (Jamar & Ozer 1986)
(PID.TID 0000.0001)    = 2 : energy conserving scheme (no hFac weight)
(PID.TID 0000.0001)    = 3 : energy conserving scheme using Wet-point averaging
(PID.TID 0000.0001)     ;
(PID.TID 0000.0001) momForcing =  /* Momentum forcing on/off flag */
(PID.TID 0000.0001)                   T
(PID.TID 0000.0001)     ;
(PID.TID 0000.0001) momTidalForcing = /* Momentum Tidal forcing on/off flag */
(PID.TID 0000.0001)                   T
(PID.TID 0000.0001)     ;
(PID.TID 0000.0001) momPressureForcing =  /* Momentum pressure term on/off flag */
(PID.TID 0000.0001)                   T
(PID.TID 0000.0001)     ;
(PID.TID 0000.0001) implicitIntGravWave= /* Implicit Internal Gravity Wave flag */
(PID.TID 0000.0001)                   F
(PID.TID 0000.0001)     ;
(PID.TID 0000.0001) staggerTimeStep =    /* Stagger time stepping on/off flag */
(PID.TID 0000.0001)                   F
(PID.TID 0000.0001)     ;
(PID.TID 0000.0001) doResetHFactors = /* reset thickness factors @ each time-step */
(PID.TID 0000.0001)                   F
(PID.TID 0000.0001)     ;
(PID.TID 0000.0001) multiDimAdvection =  /* enable/disable Multi-Dim Advection */
(PID.TID 0000.0001)                   T
(PID.TID 0000.0001)     ;
(PID.TID 0000.0001) useMultiDimAdvec =   /* Multi-Dim Advection is/is-not used */
(PID.TID 0000.0001)                   F
(PID.TID 0000.0001)     ;
(PID.TID 0000.0001) implicitDiffusion = /* Implicit Diffusion on/off flag */
(PID.TID 0000.0001)                   T
(PID.TID 0000.0001)     ;
(PID.TID 0000.0001) tempStepping =  /* Temperature equation on/off flag */
(PID.TID 0000.0001)                   T
(PID.TID 0000.0001)     ;
(PID.TID 0000.0001) tempAdvection = /* Temperature advection on/off flag */
(PID.TID 0000.0001)                   T
(PID.TID 0000.0001)     ;
(PID.TID 0000.0001) tempImplVertAdv = /* Temp. implicit vert. advection on/off */
(PID.TID 0000.0001)                   F
(PID.TID 0000.0001)     ;
(PID.TID 0000.0001) tempForcing  =  /* Temperature forcing on/off flag */
(PID.TID 0000.0001)                   T
(PID.TID 0000.0001)     ;
(PID.TID 0000.0001) doThetaClimRelax = /* apply SST relaxation on/off flag */
(PID.TID 0000.0001)                   F
(PID.TID 0000.0001)     ;
(PID.TID 0000.0001) tempIsActiveTr = /* Temp. is a dynamically Active Tracer */
(PID.TID 0000.0001)                   T
(PID.TID 0000.0001)     ;
(PID.TID 0000.0001) saltStepping =  /* Salinity equation on/off flag */
(PID.TID 0000.0001)                   T
(PID.TID 0000.0001)     ;
(PID.TID 0000.0001) saltAdvection = /* Salinity advection on/off flag */
(PID.TID 0000.0001)                   T
(PID.TID 0000.0001)     ;
(PID.TID 0000.0001) saltImplVertAdv = /* Sali. implicit vert. advection on/off */
(PID.TID 0000.0001)                   F
(PID.TID 0000.0001)     ;
(PID.TID 0000.0001) saltForcing  =  /* Salinity forcing on/off flag */
(PID.TID 0000.0001)                   T
(PID.TID 0000.0001)     ;
(PID.TID 0000.0001) doSaltClimRelax = /* apply SSS relaxation on/off flag */
(PID.TID 0000.0001)                   F
(PID.TID 0000.0001)     ;
(PID.TID 0000.0001) saltIsActiveTr = /* Salt  is a dynamically Active Tracer */
(PID.TID 0000.0001)                   T
(PID.TID 0000.0001)     ;
(PID.TID 0000.0001)  readBinaryPrec = /* Precision used for reading binary files */
(PID.TID 0000.0001)                      64
(PID.TID 0000.0001)     ;
(PID.TID 0000.0001) writeBinaryPrec = /* Precision used for writing binary files */
(PID.TID 0000.0001)                      64
(PID.TID 0000.0001)     ;
(PID.TID 0000.0001)  rwSuffixType =   /* select format of mds file suffix */
(PID.TID 0000.0001)                       0
(PID.TID 0000.0001)    = 0 : myIter (I10.10) ;   = 1 : 100*myTime (100th sec) ;
(PID.TID 0000.0001)    = 2 : myTime (seconds);   = 3 : myTime/360 (10th of hr);
(PID.TID 0000.0001)    = 4 : myTime/3600 (hours)
(PID.TID 0000.0001)     ;
(PID.TID 0000.0001)  globalFiles = /* write "global" (=not per tile) files */
(PID.TID 0000.0001)                   F
(PID.TID 0000.0001)     ;
(PID.TID 0000.0001)  useSingleCpuIO = /* only master MPI process does I/O */
(PID.TID 0000.0001)                   T
(PID.TID 0000.0001)     ;
(PID.TID 0000.0001)  useSingleCpuInput = /* only master process reads input */
(PID.TID 0000.0001)                   T
(PID.TID 0000.0001)     ;
(PID.TID 0000.0001) /* debLev[*]  : level of debug & auxiliary message printing */
(PID.TID 0000.0001) debLevZero =  0 ; /* level of disabled aux. msg printing */
(PID.TID 0000.0001)    debLevA =  1 ; /* level of minimum  aux. msg printing */
(PID.TID 0000.0001)    debLevB =  2 ; /* level of low aux. print (report read-file opening)*/
(PID.TID 0000.0001)    debLevC =  3 ; /* level of moderate debug prt (most pkgs debug msg) */
(PID.TID 0000.0001)    debLevD =  4 ; /* level of enhanced debug prt (add DEBUG_STATS prt) */
(PID.TID 0000.0001)    debLevE =  5 ; /* level of extensive debug printing */
(PID.TID 0000.0001) debugLevel =  /* select debug printing level */
(PID.TID 0000.0001)                       2
(PID.TID 0000.0001)     ;
(PID.TID 0000.0001)  plotLevel =  /* select PLOT_FIELD printing level */
(PID.TID 0000.0001)                       2
(PID.TID 0000.0001)     ;
(PID.TID 0000.0001) //
(PID.TID 0000.0001) // Elliptic solver(s) paramters ( PARM02 in namelist )
(PID.TID 0000.0001) //
(PID.TID 0000.0001) cg2dMaxIters =   /* Upper limit on 2d con. grad iterations  */
(PID.TID 0000.0001)                    1000
(PID.TID 0000.0001)     ;
(PID.TID 0000.0001) cg2dMinItersNSA =   /* Minimum number of iterations of 2d con. grad solver  */
(PID.TID 0000.0001)                       0
(PID.TID 0000.0001)     ;
(PID.TID 0000.0001) cg2dUseMinResSol= /* use cg2d last-iter(=0) / min-resid.(=1) solution */
(PID.TID 0000.0001)                       0
(PID.TID 0000.0001)     ;
(PID.TID 0000.0001) cg2dTargetResidual =   /* 2d con. grad target residual  */
(PID.TID 0000.0001)                 1.000000000000000E-07
(PID.TID 0000.0001)     ;
(PID.TID 0000.0001) cg2dTargetResWunit =   /* CG2d target residual [W units] */
(PID.TID 0000.0001)                -1.000000000000000E+00
(PID.TID 0000.0001)     ;
(PID.TID 0000.0001) cg2dPreCondFreq =   /* Freq. for updating cg2d preconditioner */
(PID.TID 0000.0001)                       1
(PID.TID 0000.0001)     ;
(PID.TID 0000.0001) useSRCGSolver =  /* use single reduction CG solver(s) */
(PID.TID 0000.0001)                   F
(PID.TID 0000.0001)     ;
(PID.TID 0000.0001) useNSACGSolver =  /* use not-self-adjoint CG solver */
(PID.TID 0000.0001)                   F
(PID.TID 0000.0001)     ;
(PID.TID 0000.0001) printResidualFreq = /* Freq. for printing CG residual */
(PID.TID 0000.0001)                       0
(PID.TID 0000.0001)     ;
(PID.TID 0000.0001) //
(PID.TID 0000.0001) // Time stepping paramters ( PARM03 in namelist )
(PID.TID 0000.0001) //
(PID.TID 0000.0001) deltaTMom =   /* Momentum equation timestep ( s ) */
(PID.TID 0000.0001)                 6.000000000000000E+01
(PID.TID 0000.0001)     ;
(PID.TID 0000.0001) deltaTFreeSurf = /* FreeSurface equation timestep ( s ) */
(PID.TID 0000.0001)                 6.000000000000000E+01
(PID.TID 0000.0001)     ;
(PID.TID 0000.0001) dTtracerLev =  /* Tracer equation timestep ( s ) */
(PID.TID 0000.0001)    40 @  6.000000000000000E+01              /* K =  1: 40 */
(PID.TID 0000.0001)     ;
(PID.TID 0000.0001) deltaTClock  =   /* Model clock timestep ( s ) */
(PID.TID 0000.0001)                 6.000000000000000E+01
(PID.TID 0000.0001)     ;
(PID.TID 0000.0001) cAdjFreq =   /* Convective adjustment interval ( s ) */
(PID.TID 0000.0001)                 0.000000000000000E+00
(PID.TID 0000.0001)     ;
(PID.TID 0000.0001) momForcingOutAB = /* =1: take Momentum Forcing out of Adams-Bash. stepping */
(PID.TID 0000.0001)                       0
(PID.TID 0000.0001)     ;
(PID.TID 0000.0001) tracForcingOutAB = /* =1: take T,S,pTr Forcing out of Adams-Bash. stepping */
(PID.TID 0000.0001)                       0
(PID.TID 0000.0001)     ;
(PID.TID 0000.0001) momDissip_In_AB = /* put Dissipation Tendency in Adams-Bash. stepping */
(PID.TID 0000.0001)                   T
(PID.TID 0000.0001)     ;
(PID.TID 0000.0001) doAB_onGtGs = /* apply AB on Tendencies (rather than on T,S)*/
(PID.TID 0000.0001)                   T
(PID.TID 0000.0001)     ;
(PID.TID 0000.0001) abEps =   /* Adams-Bashforth-2 stabilizing weight */
(PID.TID 0000.0001)                 1.000000000000000E-02
(PID.TID 0000.0001)     ;
(PID.TID 0000.0001) applyExchUV_early = /* Apply EXCH to U,V earlier in time-step */
(PID.TID 0000.0001)                   F
(PID.TID 0000.0001)     ;
(PID.TID 0000.0001) pickupStrictlyMatch= /* stop if pickup do not strictly match */
(PID.TID 0000.0001)                   T
(PID.TID 0000.0001)     ;
(PID.TID 0000.0001) nIter0   =   /* Run starting timestep number */
(PID.TID 0000.0001)                       0
(PID.TID 0000.0001)     ;
(PID.TID 0000.0001) nTimeSteps = /* Number of timesteps */
(PID.TID 0000.0001)                    1200
(PID.TID 0000.0001)     ;
(PID.TID 0000.0001) nEndIter =   /* Run ending timestep number */
(PID.TID 0000.0001)                    1200
(PID.TID 0000.0001)     ;
(PID.TID 0000.0001) baseTime =   /* Model base time ( s ) */
(PID.TID 0000.0001)                 0.000000000000000E+00
(PID.TID 0000.0001)     ;
(PID.TID 0000.0001) startTime =  /* Run start time ( s ) */
(PID.TID 0000.0001)                 0.000000000000000E+00
(PID.TID 0000.0001)     ;
(PID.TID 0000.0001) endTime  =   /* Integration ending time ( s ) */
(PID.TID 0000.0001)                 7.200000000000000E+04
(PID.TID 0000.0001)     ;
(PID.TID 0000.0001) pChkPtFreq = /* Permanent restart/pickup file interval ( s ) */
(PID.TID 0000.0001)                 0.000000000000000E+00
(PID.TID 0000.0001)     ;
(PID.TID 0000.0001) chkPtFreq  = /* Rolling restart/pickup file interval ( s ) */
(PID.TID 0000.0001)                 4.320000000000000E+04
(PID.TID 0000.0001)     ;
(PID.TID 0000.0001) pickup_write_mdsio =   /* Model IO flag. */
(PID.TID 0000.0001)                   T
(PID.TID 0000.0001)     ;
(PID.TID 0000.0001) pickup_read_mdsio =   /* Model IO flag. */
(PID.TID 0000.0001)                   T
(PID.TID 0000.0001)     ;
(PID.TID 0000.0001) pickup_write_mnc =   /* Model IO flag. */
(PID.TID 0000.0001)                   F
(PID.TID 0000.0001)     ;
(PID.TID 0000.0001) pickup_read_mnc =   /* Model IO flag. */
(PID.TID 0000.0001)                   F
(PID.TID 0000.0001)     ;
(PID.TID 0000.0001) writePickupAtEnd =   /* Model IO flag. */
(PID.TID 0000.0001)                   T
(PID.TID 0000.0001)     ;
(PID.TID 0000.0001) dumpFreq =   /* Model state write out interval ( s ). */
(PID.TID 0000.0001)                 1.200000000000000E+03
(PID.TID 0000.0001)     ;
(PID.TID 0000.0001) dumpInitAndLast= /* write out Initial & Last iter. model state */
(PID.TID 0000.0001)                   T
(PID.TID 0000.0001)     ;
(PID.TID 0000.0001) snapshot_mdsio =   /* Model IO flag. */
(PID.TID 0000.0001)                   F
(PID.TID 0000.0001)     ;
(PID.TID 0000.0001) snapshot_mnc =   /* Model IO flag. */
(PID.TID 0000.0001)                   T
(PID.TID 0000.0001)     ;
(PID.TID 0000.0001) monitorFreq =   /* Monitor output interval ( s ). */
(PID.TID 0000.0001)                 1.200000000000000E+03
(PID.TID 0000.0001)     ;
(PID.TID 0000.0001) monitorSelect = /* select group of variables to monitor */
(PID.TID 0000.0001)                       2
(PID.TID 0000.0001)     ;
(PID.TID 0000.0001) monitor_stdio =   /* Model IO flag. */
(PID.TID 0000.0001)                   T
(PID.TID 0000.0001)     ;
(PID.TID 0000.0001) monitor_mnc =   /* Model IO flag. */
(PID.TID 0000.0001)                   F
(PID.TID 0000.0001)     ;
(PID.TID 0000.0001) externForcingPeriod =   /* forcing period (s) */
(PID.TID 0000.0001)                 1.200000000000000E+03
(PID.TID 0000.0001)     ;
(PID.TID 0000.0001) externForcingCycle =   /* period of the cyle (s). */
(PID.TID 0000.0001)                 7.200000000000000E+04
(PID.TID 0000.0001)     ;
(PID.TID 0000.0001) tauThetaClimRelax =   /* relaxation time scale (s) */
(PID.TID 0000.0001)                 0.000000000000000E+00
(PID.TID 0000.0001)     ;
(PID.TID 0000.0001) tauSaltClimRelax =   /* relaxation time scale (s) */
(PID.TID 0000.0001)                 0.000000000000000E+00
(PID.TID 0000.0001)     ;
(PID.TID 0000.0001) latBandClimRelax =   /* max. Lat. where relaxation */
(PID.TID 0000.0001)                 1.929028200000013E+06
(PID.TID 0000.0001)     ;
(PID.TID 0000.0001) //
(PID.TID 0000.0001) // Gridding paramters ( PARM04 in namelist )
(PID.TID 0000.0001) //
(PID.TID 0000.0001) usingCartesianGrid = /* Cartesian coordinates flag ( True/False ) */
(PID.TID 0000.0001)                   T
(PID.TID 0000.0001)     ;
(PID.TID 0000.0001) usingCylindricalGrid = /* Cylindrical coordinates flag ( True/False ) */
(PID.TID 0000.0001)                   F
(PID.TID 0000.0001)     ;
(PID.TID 0000.0001) usingSphericalPolarGrid = /* Spherical coordinates flag ( True/False ) */
(PID.TID 0000.0001)                   F
(PID.TID 0000.0001)     ;
(PID.TID 0000.0001) usingCurvilinearGrid = /* Curvilinear coordinates flag ( True/False ) */
(PID.TID 0000.0001)                   F
(PID.TID 0000.0001)     ;
(PID.TID 0000.0001) useMin4hFacEdges = /* set hFacW,S as minimum of adjacent hFacC factor */
(PID.TID 0000.0001)                   F
(PID.TID 0000.0001)     ;
(PID.TID 0000.0001) interViscAr_pCell = /* account for partial-cell in interior vert. viscosity */
(PID.TID 0000.0001)                   F
(PID.TID 0000.0001)     ;
(PID.TID 0000.0001) interDiffKr_pCell = /* account for partial-cell in interior vert. diffusion */
(PID.TID 0000.0001)                   F
(PID.TID 0000.0001)     ;
(PID.TID 0000.0001) pCellMix_select = /* option to enhance mixing near surface & bottom */
(PID.TID 0000.0001)                       0
(PID.TID 0000.0001)     ;
(PID.TID 0000.0001) selectSigmaCoord = /* Hybrid-Sigma Vert. Coordinate option */
(PID.TID 0000.0001)                       0
(PID.TID 0000.0001)     ;
(PID.TID 0000.0001) rSigmaBnd = /* r/sigma transition ( units of r ==  m ) */
(PID.TID 0000.0001)                 1.234567000000000E+05
(PID.TID 0000.0001)     ;
(PID.TID 0000.0001) rkSign =   /* index orientation relative to vertical coordinate */
(PID.TID 0000.0001)                -1.000000000000000E+00
(PID.TID 0000.0001)     ;
(PID.TID 0000.0001) gravitySign = /* gravity orientation relative to vertical coordinate */
(PID.TID 0000.0001)                -1.000000000000000E+00
(PID.TID 0000.0001)     ;
(PID.TID 0000.0001) seaLev_Z =  /* reference height of sea-level [m] */
(PID.TID 0000.0001)                 0.000000000000000E+00
(PID.TID 0000.0001)     ;
(PID.TID 0000.0001) top_Pres =  /* reference pressure at the top [Pa] */
(PID.TID 0000.0001)                 0.000000000000000E+00
(PID.TID 0000.0001)     ;
(PID.TID 0000.0001) mass2rUnit = /* convert mass per unit area [kg/m2] to r-units [m] */
(PID.TID 0000.0001)                 1.000200040008002E-03
(PID.TID 0000.0001)     ;
(PID.TID 0000.0001) rUnit2mass = /* convert r-units [m] to mass per unit area [kg/m2] */
(PID.TID 0000.0001)                 9.998000000000000E+02
(PID.TID 0000.0001)     ;
(PID.TID 0000.0001) drC =   /* C spacing ( units of r ) */
(PID.TID 0000.0001)                 1.000000000000000E+00,      /* K =  1 */
(PID.TID 0000.0001)                 2.100000000000000E+00,      /* K =  2 */
(PID.TID 0000.0001)                 2.300000000000000E+00,      /* K =  3 */
(PID.TID 0000.0001)                 2.550000000000000E+00,      /* K =  4 */
(PID.TID 0000.0001)                 2.850000000000000E+00,      /* K =  5 */
(PID.TID 0000.0001)                 3.150000000000000E+00,      /* K =  6 */
(PID.TID 0000.0001)                 3.450000000000000E+00,      /* K =  7 */
(PID.TID 0000.0001)                 3.800000000000000E+00,      /* K =  8 */
(PID.TID 0000.0001)                 4.200000000000000E+00,      /* K =  9 */
(PID.TID 0000.0001)                 4.650000000000000E+00,      /* K = 10 */
(PID.TID 0000.0001)                 5.150000000000000E+00,      /* K = 11 */
(PID.TID 0000.0001)                 5.700000000000000E+00,      /* K = 12 */
(PID.TID 0000.0001)                 6.300000000000000E+00,      /* K = 13 */
(PID.TID 0000.0001)                 6.949999999999999E+00,      /* K = 14 */
(PID.TID 0000.0001)                 7.650000000000000E+00,      /* K = 15 */
(PID.TID 0000.0001)                 8.449999999999999E+00,      /* K = 16 */
(PID.TID 0000.0001)                 9.350000000000001E+00,      /* K = 17 */
(PID.TID 0000.0001)                 1.030000000000000E+01,      /* K = 18 */
(PID.TID 0000.0001)                 1.140000000000000E+01,      /* K = 19 */
(PID.TID 0000.0001)                 1.260000000000000E+01,      /* K = 20 */
(PID.TID 0000.0001)                 1.390000000000000E+01,      /* K = 21 */
(PID.TID 0000.0001)                 1.535000000000000E+01,      /* K = 22 */
(PID.TID 0000.0001)                 1.695000000000000E+01,      /* K = 23 */
(PID.TID 0000.0001)                 1.875000000000000E+01,      /* K = 24 */
(PID.TID 0000.0001)                 2.070000000000000E+01,      /* K = 25 */
(PID.TID 0000.0001)                 2.285000000000000E+01,      /* K = 26 */
(PID.TID 0000.0001)                 2.525000000000000E+01,      /* K = 27 */
(PID.TID 0000.0001)                 2.790000000000000E+01,      /* K = 28 */
(PID.TID 0000.0001)                 3.080000000000000E+01,      /* K = 29 */
(PID.TID 0000.0001)                 3.400000000000000E+01,      /* K = 30 */
(PID.TID 0000.0001)                 3.755000000000000E+01,      /* K = 31 */
(PID.TID 0000.0001)                 4.150000000000000E+01,      /* K = 32 */
(PID.TID 0000.0001)                 4.585000000000000E+01,      /* K = 33 */
(PID.TID 0000.0001)                 5.060000000000000E+01,      /* K = 34 */
(PID.TID 0000.0001)                 5.590000000000001E+01,      /* K = 35 */
(PID.TID 0000.0001)                 6.175000000000000E+01,      /* K = 36 */
(PID.TID 0000.0001)                 6.819999999999999E+01,      /* K = 37 */
(PID.TID 0000.0001)                 7.534999999999999E+01,      /* K = 38 */
(PID.TID 0000.0001)                 8.309999999999999E+01,      /* K = 39 */
(PID.TID 0000.0001)                 9.169999999999999E+01,      /* K = 40 */
(PID.TID 0000.0001)                 4.815000000000000E+01       /* K = 41 */
(PID.TID 0000.0001)     ;
(PID.TID 0000.0001) drF =   /* W spacing ( units of r ) */
(PID.TID 0000.0001)                 2.000000000000000E+00,      /* K =  1 */
(PID.TID 0000.0001)                 2.200000000000000E+00,      /* K =  2 */
(PID.TID 0000.0001)                 2.400000000000000E+00,      /* K =  3 */
(PID.TID 0000.0001)                 2.700000000000000E+00,      /* K =  4 */
(PID.TID 0000.0001)                 3.000000000000000E+00,      /* K =  5 */
(PID.TID 0000.0001)                 3.300000000000000E+00,      /* K =  6 */
(PID.TID 0000.0001)                 3.600000000000000E+00,      /* K =  7 */
(PID.TID 0000.0001)                 4.000000000000000E+00,      /* K =  8 */
(PID.TID 0000.0001)                 4.400000000000000E+00,      /* K =  9 */
(PID.TID 0000.0001)                 4.900000000000000E+00,      /* K = 10 */
(PID.TID 0000.0001)                 5.400000000000000E+00,      /* K = 11 */
(PID.TID 0000.0001)                 6.000000000000000E+00,      /* K = 12 */
(PID.TID 0000.0001)                 6.600000000000000E+00,      /* K = 13 */
(PID.TID 0000.0001)                 7.300000000000000E+00,      /* K = 14 */
(PID.TID 0000.0001)                 8.000000000000000E+00,      /* K = 15 */
(PID.TID 0000.0001)                 8.900000000000000E+00,      /* K = 16 */
(PID.TID 0000.0001)                 9.800000000000001E+00,      /* K = 17 */
(PID.TID 0000.0001)                 1.080000000000000E+01,      /* K = 18 */
(PID.TID 0000.0001)                 1.200000000000000E+01,      /* K = 19 */
(PID.TID 0000.0001)                 1.320000000000000E+01,      /* K = 20 */
(PID.TID 0000.0001)                 1.460000000000000E+01,      /* K = 21 */
(PID.TID 0000.0001)                 1.610000000000000E+01,      /* K = 22 */
(PID.TID 0000.0001)                 1.780000000000000E+01,      /* K = 23 */
(PID.TID 0000.0001)                 1.970000000000000E+01,      /* K = 24 */
(PID.TID 0000.0001)                 2.170000000000000E+01,      /* K = 25 */
(PID.TID 0000.0001)                 2.400000000000000E+01,      /* K = 26 */
(PID.TID 0000.0001)                 2.650000000000000E+01,      /* K = 27 */
(PID.TID 0000.0001)                 2.930000000000000E+01,      /* K = 28 */
(PID.TID 0000.0001)                 3.230000000000000E+01,      /* K = 29 */
(PID.TID 0000.0001)                 3.570000000000000E+01,      /* K = 30 */
(PID.TID 0000.0001)                 3.940000000000000E+01,      /* K = 31 */
(PID.TID 0000.0001)                 4.360000000000000E+01,      /* K = 32 */
(PID.TID 0000.0001)                 4.810000000000000E+01,      /* K = 33 */
(PID.TID 0000.0001)                 5.310000000000000E+01,      /* K = 34 */
(PID.TID 0000.0001)                 5.870000000000000E+01,      /* K = 35 */
(PID.TID 0000.0001)                 6.480000000000000E+01,      /* K = 36 */
(PID.TID 0000.0001)                 7.159999999999999E+01,      /* K = 37 */
(PID.TID 0000.0001)                 7.909999999999999E+01,      /* K = 38 */
(PID.TID 0000.0001)                 8.709999999999999E+01,      /* K = 39 */
(PID.TID 0000.0001)                 9.630000000000000E+01       /* K = 40 */
(PID.TID 0000.0001)     ;
(PID.TID 0000.0001) delX = /* U spacing ( m - cartesian, degrees - spherical ) */
(PID.TID 0000.0001)                 6.600000000000000E+04,      /* I =  1 */
(PID.TID 0000.0001)                 6.200000000000000E+04,      /* I =  2 */
(PID.TID 0000.0001)                 5.800000000000000E+04,      /* I =  3 */
(PID.TID 0000.0001)      . . .
(PID.TID 0000.0001)                 2.008399999999994E+03,      /* I = 66 */
(PID.TID 0000.0001)                 2.008399999999994E+03,      /* I = 67 */
(PID.TID 0000.0001)                 2.008500000000000E+03,      /* I = 68 */
(PID.TID 0000.0001)                 2.008399999999994E+03,      /* I = 69 */
(PID.TID 0000.0001)                 2.008500000000000E+03,      /* I = 70 */
(PID.TID 0000.0001)                 2.008400000000009E+03,      /* I = 71 */
(PID.TID 0000.0001)      . . .
(PID.TID 0000.0001)                 2.008400000000001E+03,      /* I =134 */
(PID.TID 0000.0001)                 2.008500000000000E+03,      /* I =135 */
(PID.TID 0000.0001)                 2.008400000000000E+03,      /* I =136 */
(PID.TID 0000.0001)                 2.008500000000000E+03,      /* I =137 */
(PID.TID 0000.0001)                 2.008400000000001E+03,      /* I =138 */
(PID.TID 0000.0001)                 2.008400000000000E+03,      /* I =139 */
(PID.TID 0000.0001)      . . .
(PID.TID 0000.0001)                 2.008500000000000E+03,      /* I =202 */
(PID.TID 0000.0001)                 2.008399999999994E+03,      /* I =203 */
(PID.TID 0000.0001)                 2.008500000000000E+03,      /* I =204 */
(PID.TID 0000.0001)                 2.008399999999994E+03,      /* I =205 */
(PID.TID 0000.0001)                 2.008399999999994E+03,      /* I =206 */
(PID.TID 0000.0001)                 2.008500000000000E+03,      /* I =207 */
(PID.TID 0000.0001)      . . .
(PID.TID 0000.0001)                 6.200000000000000E+04,      /* I =270 */
(PID.TID 0000.0001)                 6.600000000000000E+04,      /* I =271 */
(PID.TID 0000.0001)                 6.600000000000000E+04       /* I =272 */
(PID.TID 0000.0001)     ;
(PID.TID 0000.0001) delY = /* V spacing ( m - cartesian, degrees - spherical ) */
(PID.TID 0000.0001)                 2.009400000000023E+03,      /* J =  1 */
(PID.TID 0000.0001)                 2.009399999999965E+03,      /* J =  2 */
(PID.TID 0000.0001)                 2.009400000000023E+03,      /* J =  3 */
(PID.TID 0000.0001)      . . .
(PID.TID 0000.0001)                 2.009400000000023E+03,      /* J = 78 */
(PID.TID 0000.0001)                 2.009400000000023E+03,      /* J = 79 */
(PID.TID 0000.0001)                 2.009500000000000E+03,      /* J = 80 */
(PID.TID 0000.0001)                 2.009399999999965E+03,      /* J = 81 */
(PID.TID 0000.0001)                 2.009400000000023E+03,      /* J = 82 */
(PID.TID 0000.0001)                 2.009399999999965E+03,      /* J = 83 */
(PID.TID 0000.0001)      . . .
(PID.TID 0000.0001)                 2.009399999999994E+03,      /* J =158 */
(PID.TID 0000.0001)                 2.009399999999994E+03,      /* J =159 */
(PID.TID 0000.0001)                 2.009400000000023E+03,      /* J =160 */
(PID.TID 0000.0001)                 2.009399999999994E+03,      /* J =161 */
(PID.TID 0000.0001)                 2.009399999999994E+03,      /* J =162 */
(PID.TID 0000.0001)                 2.009399999999994E+03,      /* J =163 */
(PID.TID 0000.0001)      . . .
(PID.TID 0000.0001)                 2.009400000000001E+03,      /* J =238 */
(PID.TID 0000.0001)                 2.009399999999998E+03,      /* J =239 */
(PID.TID 0000.0001)                 2.009500000000000E+03,      /* J =240 */
(PID.TID 0000.0001)                 2.009400000000001E+03,      /* J =241 */
(PID.TID 0000.0001)                 2.009400000000000E+03,      /* J =242 */
(PID.TID 0000.0001)                 2.009400000000000E+03,      /* J =243 */
(PID.TID 0000.0001)      . . .
(PID.TID 0000.0001)                 2.009399999999994E+03,      /* J =318 */
(PID.TID 0000.0001)                 2.009399999999994E+03,      /* J =319 */
(PID.TID 0000.0001)                 2.009399999999994E+03       /* J =320 */
(PID.TID 0000.0001)     ;
(PID.TID 0000.0001) xgOrigin = /* X-axis origin of West  edge (cartesian: m, lat-lon: deg) */
(PID.TID 0000.0001)                -8.430000000000000E+05
(PID.TID 0000.0001)     ;
(PID.TID 0000.0001) ygOrigin = /* Y-axis origin of South edge (cartesian: m, lat-lon: deg) */
(PID.TID 0000.0001)                -5.020000000000000E+05
(PID.TID 0000.0001)     ;
(PID.TID 0000.0001) rSphere =  /* Radius ( ignored - cartesian, m - spherical ) */
(PID.TID 0000.0001)                 6.370000000000000E+06
(PID.TID 0000.0001)     ;
(PID.TID 0000.0001) deepAtmosphere = /* Deep/Shallow Atmosphere flag (True/False) */
(PID.TID 0000.0001)                   F
(PID.TID 0000.0001)     ;
(PID.TID 0000.0001) xC =  /* xC(:,1,:,1) : P-point X coord ( deg. or m if cartesian) */
(PID.TID 0000.0001)                -8.100000000000000E+05,      /* I =  1 */
(PID.TID 0000.0001)                -7.460000000000000E+05,      /* I =  2 */
(PID.TID 0000.0001)                -6.860000000000000E+05,      /* I =  3 */
(PID.TID 0000.0001)      . . .
(PID.TID 0000.0001)                -1.675907000000000E+05,      /* I = 66 */
(PID.TID 0000.0001)                -1.655823000000000E+05,      /* I = 67 */
(PID.TID 0000.0001)                -1.635738500000000E+05,      /* I = 68 */
(PID.TID 0000.0001)                -1.615654000000000E+05,      /* I = 69 */
(PID.TID 0000.0001)                -1.595569500000000E+05,      /* I = 70 */
(PID.TID 0000.0001)                -1.575485000000000E+05,      /* I = 71 */
(PID.TID 0000.0001)      . . .
(PID.TID 0000.0001)                -3.101690000000001E+04,      /* I =134 */
(PID.TID 0000.0001)                -2.900845000000000E+04,      /* I =135 */
(PID.TID 0000.0001)                -2.700000000000000E+04,      /* I =136 */
(PID.TID 0000.0001)                -2.499155000000000E+04,      /* I =137 */
(PID.TID 0000.0001)                -2.298310000000000E+04,      /* I =138 */
(PID.TID 0000.0001)                -2.097470000000000E+04,      /* I =139 */
(PID.TID 0000.0001)      . . .
(PID.TID 0000.0001)                 1.055569500000000E+05,      /* I =202 */
(PID.TID 0000.0001)                 1.075654000000000E+05,      /* I =203 */
(PID.TID 0000.0001)                 1.095738500000000E+05,      /* I =204 */
(PID.TID 0000.0001)                 1.115823000000000E+05,      /* I =205 */
(PID.TID 0000.0001)                 1.135907000000000E+05,      /* I =206 */
(PID.TID 0000.0001)                 1.155991500000000E+05,      /* I =207 */
(PID.TID 0000.0001)      . . .
(PID.TID 0000.0001)                 6.920000000000000E+05,      /* I =270 */
(PID.TID 0000.0001)                 7.560000000000000E+05,      /* I =271 */
(PID.TID 0000.0001)                 8.220000000000000E+05       /* I =272 */
(PID.TID 0000.0001)     ;
(PID.TID 0000.0001) yC =  /* yC(1,:,1,:) : P-point Y coord ( deg. or m if cartesian) */
(PID.TID 0000.0001)                -5.009953000000000E+05,      /* J =  1 */
(PID.TID 0000.0001)                -4.989859000000000E+05,      /* J =  2 */
(PID.TID 0000.0001)                -4.969765000000000E+05,      /* J =  3 */
(PID.TID 0000.0001)      . . .
(PID.TID 0000.0001)                -3.462712000000000E+05,      /* J = 78 */
(PID.TID 0000.0001)                -3.442618000000000E+05,      /* J = 79 */
(PID.TID 0000.0001)                -3.422523500000000E+05,      /* J = 80 */
(PID.TID 0000.0001)                -3.402429000000000E+05,      /* J = 81 */
(PID.TID 0000.0001)                -3.382335000000000E+05,      /* J = 82 */
(PID.TID 0000.0001)                -3.362241000000000E+05,      /* J = 83 */
(PID.TID 0000.0001)      . . .
(PID.TID 0000.0001)                -1.855188000000000E+05,      /* J =158 */
(PID.TID 0000.0001)                -1.835094000000000E+05,      /* J =159 */
(PID.TID 0000.0001)                -1.815000000000000E+05,      /* J =160 */
(PID.TID 0000.0001)                -1.794906000000000E+05,      /* J =161 */
(PID.TID 0000.0001)                -1.774812000000000E+05,      /* J =162 */
(PID.TID 0000.0001)                -1.754718000000000E+05,      /* J =163 */
(PID.TID 0000.0001)      . . .
(PID.TID 0000.0001)                -2.476650000000000E+04,      /* J =238 */
(PID.TID 0000.0001)                -2.275710000000000E+04,      /* J =239 */
(PID.TID 0000.0001)                -2.074765000000000E+04,      /* J =240 */
(PID.TID 0000.0001)                -1.873820000000000E+04,      /* J =241 */
(PID.TID 0000.0001)                -1.672880000000000E+04,      /* J =242 */
(PID.TID 0000.0001)                -1.471940000000000E+04,      /* J =243 */
(PID.TID 0000.0001)      . . .
(PID.TID 0000.0001)                 1.359859000000000E+05,      /* J =318 */
(PID.TID 0000.0001)                 1.379953000000000E+05,      /* J =319 */
(PID.TID 0000.0001)                 1.400047000000000E+05       /* J =320 */
(PID.TID 0000.0001)     ;
(PID.TID 0000.0001) rcoord = /* P-point R coordinate (  units of r ) */
(PID.TID 0000.0001)                -1.000000000000000E+00,      /* K =  1 */
(PID.TID 0000.0001)                -3.100000000000000E+00,      /* K =  2 */
(PID.TID 0000.0001)                -5.400000000000000E+00,      /* K =  3 */
(PID.TID 0000.0001)                -7.950000000000000E+00,      /* K =  4 */
(PID.TID 0000.0001)                -1.080000000000000E+01,      /* K =  5 */
(PID.TID 0000.0001)                -1.395000000000000E+01,      /* K =  6 */
(PID.TID 0000.0001)                -1.740000000000000E+01,      /* K =  7 */
(PID.TID 0000.0001)                -2.120000000000000E+01,      /* K =  8 */
(PID.TID 0000.0001)                -2.540000000000000E+01,      /* K =  9 */
(PID.TID 0000.0001)                -3.005000000000000E+01,      /* K = 10 */
(PID.TID 0000.0001)                -3.520000000000000E+01,      /* K = 11 */
(PID.TID 0000.0001)                -4.090000000000001E+01,      /* K = 12 */
(PID.TID 0000.0001)                -4.720000000000000E+01,      /* K = 13 */
(PID.TID 0000.0001)                -5.415000000000001E+01,      /* K = 14 */
(PID.TID 0000.0001)                -6.180000000000000E+01,      /* K = 15 */
(PID.TID 0000.0001)                -7.025000000000000E+01,      /* K = 16 */
(PID.TID 0000.0001)                -7.959999999999999E+01,      /* K = 17 */
(PID.TID 0000.0001)                -8.989999999999999E+01,      /* K = 18 */
(PID.TID 0000.0001)                -1.013000000000000E+02,      /* K = 19 */
(PID.TID 0000.0001)                -1.139000000000000E+02,      /* K = 20 */
(PID.TID 0000.0001)                -1.278000000000000E+02,      /* K = 21 */
(PID.TID 0000.0001)                -1.431500000000000E+02,      /* K = 22 */
(PID.TID 0000.0001)                -1.601000000000000E+02,      /* K = 23 */
(PID.TID 0000.0001)                -1.788500000000000E+02,      /* K = 24 */
(PID.TID 0000.0001)                -1.995500000000000E+02,      /* K = 25 */
(PID.TID 0000.0001)                -2.223999999999999E+02,      /* K = 26 */
(PID.TID 0000.0001)                -2.476499999999999E+02,      /* K = 27 */
(PID.TID 0000.0001)                -2.755500000000000E+02,      /* K = 28 */
(PID.TID 0000.0001)                -3.063500000000000E+02,      /* K = 29 */
(PID.TID 0000.0001)                -3.403500000000000E+02,      /* K = 30 */
(PID.TID 0000.0001)                -3.779000000000000E+02,      /* K = 31 */
(PID.TID 0000.0001)                -4.194000000000000E+02,      /* K = 32 */
(PID.TID 0000.0001)                -4.652500000000000E+02,      /* K = 33 */
(PID.TID 0000.0001)                -5.158500000000000E+02,      /* K = 34 */
(PID.TID 0000.0001)                -5.717500000000000E+02,      /* K = 35 */
(PID.TID 0000.0001)                -6.335000000000000E+02,      /* K = 36 */
(PID.TID 0000.0001)                -7.017000000000000E+02,      /* K = 37 */
(PID.TID 0000.0001)                -7.770500000000001E+02,      /* K = 38 */
(PID.TID 0000.0001)                -8.601500000000001E+02,      /* K = 39 */
(PID.TID 0000.0001)                -9.518500000000001E+02       /* K = 40 */
(PID.TID 0000.0001)     ;
(PID.TID 0000.0001) rF =   /* W-Interf. R coordinate (  units of r ) */
(PID.TID 0000.0001)                 0.000000000000000E+00,      /* K =  1 */
(PID.TID 0000.0001)                -2.000000000000000E+00,      /* K =  2 */
(PID.TID 0000.0001)                -4.200000000000000E+00,      /* K =  3 */
(PID.TID 0000.0001)                -6.600000000000000E+00,      /* K =  4 */
(PID.TID 0000.0001)                -9.300000000000001E+00,      /* K =  5 */
(PID.TID 0000.0001)                -1.230000000000000E+01,      /* K =  6 */
(PID.TID 0000.0001)                -1.560000000000000E+01,      /* K =  7 */
(PID.TID 0000.0001)                -1.920000000000000E+01,      /* K =  8 */
(PID.TID 0000.0001)                -2.320000000000000E+01,      /* K =  9 */
(PID.TID 0000.0001)                -2.760000000000000E+01,      /* K = 10 */
(PID.TID 0000.0001)                -3.250000000000000E+01,      /* K = 11 */
(PID.TID 0000.0001)                -3.790000000000000E+01,      /* K = 12 */
(PID.TID 0000.0001)                -4.390000000000000E+01,      /* K = 13 */
(PID.TID 0000.0001)                -5.050000000000000E+01,      /* K = 14 */
(PID.TID 0000.0001)                -5.780000000000000E+01,      /* K = 15 */
(PID.TID 0000.0001)                -6.580000000000000E+01,      /* K = 16 */
(PID.TID 0000.0001)                -7.470000000000000E+01,      /* K = 17 */
(PID.TID 0000.0001)                -8.450000000000000E+01,      /* K = 18 */
(PID.TID 0000.0001)                -9.530000000000000E+01,      /* K = 19 */
(PID.TID 0000.0001)                -1.073000000000000E+02,      /* K = 20 */
(PID.TID 0000.0001)                -1.205000000000000E+02,      /* K = 21 */
(PID.TID 0000.0001)                -1.351000000000000E+02,      /* K = 22 */
(PID.TID 0000.0001)                -1.512000000000000E+02,      /* K = 23 */
(PID.TID 0000.0001)                -1.690000000000000E+02,      /* K = 24 */
(PID.TID 0000.0001)                -1.887000000000000E+02,      /* K = 25 */
(PID.TID 0000.0001)                -2.104000000000000E+02,      /* K = 26 */
(PID.TID 0000.0001)                -2.344000000000000E+02,      /* K = 27 */
(PID.TID 0000.0001)                -2.609000000000000E+02,      /* K = 28 */
(PID.TID 0000.0001)                -2.902000000000000E+02,      /* K = 29 */
(PID.TID 0000.0001)                -3.225000000000000E+02,      /* K = 30 */
(PID.TID 0000.0001)                -3.582000000000000E+02,      /* K = 31 */
(PID.TID 0000.0001)                -3.976000000000000E+02,      /* K = 32 */
(PID.TID 0000.0001)                -4.412000000000000E+02,      /* K = 33 */
(PID.TID 0000.0001)                -4.893000000000000E+02,      /* K = 34 */
(PID.TID 0000.0001)                -5.424000000000000E+02,      /* K = 35 */
(PID.TID 0000.0001)                -6.011000000000000E+02,      /* K = 36 */
(PID.TID 0000.0001)                -6.659000000000000E+02,      /* K = 37 */
(PID.TID 0000.0001)                -7.375000000000000E+02,      /* K = 38 */
(PID.TID 0000.0001)                -8.166000000000000E+02,      /* K = 39 */
(PID.TID 0000.0001)                -9.037000000000000E+02,      /* K = 40 */
(PID.TID 0000.0001)                -1.000000000000000E+03       /* K = 41 */
(PID.TID 0000.0001)     ;
(PID.TID 0000.0001) deepFacC = /* deep-model grid factor @ cell-Center (-) */
(PID.TID 0000.0001)    40 @  1.000000000000000E+00              /* K =  1: 40 */
(PID.TID 0000.0001)     ;
(PID.TID 0000.0001) deepFacF = /* deep-model grid factor @ W-Interface (-) */
(PID.TID 0000.0001)    41 @  1.000000000000000E+00              /* K =  1: 41 */
(PID.TID 0000.0001)     ;
(PID.TID 0000.0001) rotateGrid = /* use rotated grid ( True/False ) */
(PID.TID 0000.0001)                   F
(PID.TID 0000.0001)     ;
(PID.TID 0000.0001) phiEuler = /* Euler angle, rotation about original z-coordinate [rad] */
(PID.TID 0000.0001)                 0.000000000000000E+00
(PID.TID 0000.0001)     ;
(PID.TID 0000.0001) thetaEuler = /* Euler angle, rotation about new x-coordinate [rad] */
(PID.TID 0000.0001)                 0.000000000000000E+00
(PID.TID 0000.0001)     ;
(PID.TID 0000.0001) psiEuler = /* Euler angle, rotation about new z-coordinate [rad] */
(PID.TID 0000.0001)                 0.000000000000000E+00
(PID.TID 0000.0001)     ;
(PID.TID 0000.0001) dxF =  /* dxF(:,1,:,1) ( units: m ) */
(PID.TID 0000.0001)                 6.600000000000000E+04,      /* I =  1 */
(PID.TID 0000.0001)                 6.200000000000000E+04,      /* I =  2 */
(PID.TID 0000.0001)                 5.800000000000000E+04,      /* I =  3 */
(PID.TID 0000.0001)      . . .
(PID.TID 0000.0001)                 2.008399999999994E+03,      /* I = 66 */
(PID.TID 0000.0001)                 2.008399999999994E+03,      /* I = 67 */
(PID.TID 0000.0001)                 2.008500000000000E+03,      /* I = 68 */
(PID.TID 0000.0001)                 2.008399999999994E+03,      /* I = 69 */
(PID.TID 0000.0001)                 2.008500000000000E+03,      /* I = 70 */
(PID.TID 0000.0001)                 2.008400000000009E+03,      /* I = 71 */
(PID.TID 0000.0001)      . . .
(PID.TID 0000.0001)                 2.008400000000001E+03,      /* I =134 */
(PID.TID 0000.0001)                 2.008500000000000E+03,      /* I =135 */
(PID.TID 0000.0001)                 2.008400000000000E+03,      /* I =136 */
(PID.TID 0000.0001)                 2.008500000000000E+03,      /* I =137 */
(PID.TID 0000.0001)                 2.008400000000001E+03,      /* I =138 */
(PID.TID 0000.0001)                 2.008400000000000E+03,      /* I =139 */
(PID.TID 0000.0001)      . . .
(PID.TID 0000.0001)                 2.008500000000000E+03,      /* I =202 */
(PID.TID 0000.0001)                 2.008399999999994E+03,      /* I =203 */
(PID.TID 0000.0001)                 2.008500000000000E+03,      /* I =204 */
(PID.TID 0000.0001)                 2.008399999999994E+03,      /* I =205 */
(PID.TID 0000.0001)                 2.008399999999994E+03,      /* I =206 */
(PID.TID 0000.0001)                 2.008500000000000E+03,      /* I =207 */
(PID.TID 0000.0001)      . . .
(PID.TID 0000.0001)                 6.200000000000000E+04,      /* I =270 */
(PID.TID 0000.0001)                 6.600000000000000E+04,      /* I =271 */
(PID.TID 0000.0001)                 6.600000000000000E+04       /* I =272 */
(PID.TID 0000.0001)     ;
(PID.TID 0000.0001) dxF =  /* dxF(1,:,1,:) ( units: m ) */
(PID.TID 0000.0001)   320 @  6.600000000000000E+04              /* J =  1:320 */
(PID.TID 0000.0001)     ;
(PID.TID 0000.0001) dyF =  /* dyF(:,1,:,1) ( units: m ) */
(PID.TID 0000.0001)   272 @  2.009400000000023E+03              /* I =  1:272 */
(PID.TID 0000.0001)     ;
(PID.TID 0000.0001) dyF =  /* dyF(1,:,1,:) ( units: m ) */
(PID.TID 0000.0001)                 2.009400000000023E+03,      /* J =  1 */
(PID.TID 0000.0001)                 2.009399999999965E+03,      /* J =  2 */
(PID.TID 0000.0001)                 2.009400000000023E+03,      /* J =  3 */
(PID.TID 0000.0001)      . . .
(PID.TID 0000.0001)                 2.009400000000023E+03,      /* J = 78 */
(PID.TID 0000.0001)                 2.009400000000023E+03,      /* J = 79 */
(PID.TID 0000.0001)                 2.009500000000000E+03,      /* J = 80 */
(PID.TID 0000.0001)                 2.009399999999965E+03,      /* J = 81 */
(PID.TID 0000.0001)                 2.009400000000023E+03,      /* J = 82 */
(PID.TID 0000.0001)                 2.009399999999965E+03,      /* J = 83 */
(PID.TID 0000.0001)      . . .
(PID.TID 0000.0001)                 2.009399999999994E+03,      /* J =158 */
(PID.TID 0000.0001)                 2.009399999999994E+03,      /* J =159 */
(PID.TID 0000.0001)                 2.009400000000023E+03,      /* J =160 */
(PID.TID 0000.0001)                 2.009399999999994E+03,      /* J =161 */
(PID.TID 0000.0001)                 2.009399999999994E+03,      /* J =162 */
(PID.TID 0000.0001)                 2.009399999999994E+03,      /* J =163 */
(PID.TID 0000.0001)      . . .
(PID.TID 0000.0001)                 2.009400000000001E+03,      /* J =238 */
(PID.TID 0000.0001)                 2.009399999999998E+03,      /* J =239 */
(PID.TID 0000.0001)                 2.009500000000000E+03,      /* J =240 */
(PID.TID 0000.0001)                 2.009400000000001E+03,      /* J =241 */
(PID.TID 0000.0001)                 2.009400000000000E+03,      /* J =242 */
(PID.TID 0000.0001)                 2.009400000000000E+03,      /* J =243 */
(PID.TID 0000.0001)      . . .
(PID.TID 0000.0001)                 2.009399999999994E+03,      /* J =318 */
(PID.TID 0000.0001)                 2.009399999999994E+03,      /* J =319 */
(PID.TID 0000.0001)                 2.009399999999994E+03       /* J =320 */
(PID.TID 0000.0001)     ;
(PID.TID 0000.0001) dxG =  /* dxG(:,1,:,1) ( units: m ) */
(PID.TID 0000.0001)                 6.600000000000000E+04,      /* I =  1 */
(PID.TID 0000.0001)                 6.200000000000000E+04,      /* I =  2 */
(PID.TID 0000.0001)                 5.800000000000000E+04,      /* I =  3 */
(PID.TID 0000.0001)      . . .
(PID.TID 0000.0001)                 2.008399999999994E+03,      /* I = 66 */
(PID.TID 0000.0001)                 2.008399999999994E+03,      /* I = 67 */
(PID.TID 0000.0001)                 2.008500000000000E+03,      /* I = 68 */
(PID.TID 0000.0001)                 2.008399999999994E+03,      /* I = 69 */
(PID.TID 0000.0001)                 2.008500000000000E+03,      /* I = 70 */
(PID.TID 0000.0001)                 2.008400000000009E+03,      /* I = 71 */
(PID.TID 0000.0001)      . . .
(PID.TID 0000.0001)                 2.008400000000001E+03,      /* I =134 */
(PID.TID 0000.0001)                 2.008500000000000E+03,      /* I =135 */
(PID.TID 0000.0001)                 2.008400000000000E+03,      /* I =136 */
(PID.TID 0000.0001)                 2.008500000000000E+03,      /* I =137 */
(PID.TID 0000.0001)                 2.008400000000001E+03,      /* I =138 */
(PID.TID 0000.0001)                 2.008400000000000E+03,      /* I =139 */
(PID.TID 0000.0001)      . . .
(PID.TID 0000.0001)                 2.008500000000000E+03,      /* I =202 */
(PID.TID 0000.0001)                 2.008399999999994E+03,      /* I =203 */
(PID.TID 0000.0001)                 2.008500000000000E+03,      /* I =204 */
(PID.TID 0000.0001)                 2.008399999999994E+03,      /* I =205 */
(PID.TID 0000.0001)                 2.008399999999994E+03,      /* I =206 */
(PID.TID 0000.0001)                 2.008500000000000E+03,      /* I =207 */
(PID.TID 0000.0001)      . . .
(PID.TID 0000.0001)                 6.200000000000000E+04,      /* I =270 */
(PID.TID 0000.0001)                 6.600000000000000E+04,      /* I =271 */
(PID.TID 0000.0001)                 6.600000000000000E+04       /* I =272 */
(PID.TID 0000.0001)     ;
(PID.TID 0000.0001) dxG =  /* dxG(1,:,1,:) ( units: m ) */
(PID.TID 0000.0001)   320 @  6.600000000000000E+04              /* J =  1:320 */
(PID.TID 0000.0001)     ;
(PID.TID 0000.0001) dyG =  /* dyG(:,1,:,1) ( units: m ) */
(PID.TID 0000.0001)   272 @  2.009400000000023E+03              /* I =  1:272 */
(PID.TID 0000.0001)     ;
(PID.TID 0000.0001) dyG =  /* dyG(1,:,1,:) ( units: m ) */
(PID.TID 0000.0001)                 2.009400000000023E+03,      /* J =  1 */
(PID.TID 0000.0001)                 2.009399999999965E+03,      /* J =  2 */
(PID.TID 0000.0001)                 2.009400000000023E+03,      /* J =  3 */
(PID.TID 0000.0001)      . . .
(PID.TID 0000.0001)                 2.009400000000023E+03,      /* J = 78 */
(PID.TID 0000.0001)                 2.009400000000023E+03,      /* J = 79 */
(PID.TID 0000.0001)                 2.009500000000000E+03,      /* J = 80 */
(PID.TID 0000.0001)                 2.009399999999965E+03,      /* J = 81 */
(PID.TID 0000.0001)                 2.009400000000023E+03,      /* J = 82 */
(PID.TID 0000.0001)                 2.009399999999965E+03,      /* J = 83 */
(PID.TID 0000.0001)      . . .
(PID.TID 0000.0001)                 2.009399999999994E+03,      /* J =158 */
(PID.TID 0000.0001)                 2.009399999999994E+03,      /* J =159 */
(PID.TID 0000.0001)                 2.009400000000023E+03,      /* J =160 */
(PID.TID 0000.0001)                 2.009399999999994E+03,      /* J =161 */
(PID.TID 0000.0001)                 2.009399999999994E+03,      /* J =162 */
(PID.TID 0000.0001)                 2.009399999999994E+03,      /* J =163 */
(PID.TID 0000.0001)      . . .
(PID.TID 0000.0001)                 2.009400000000001E+03,      /* J =238 */
(PID.TID 0000.0001)                 2.009399999999998E+03,      /* J =239 */
(PID.TID 0000.0001)                 2.009500000000000E+03,      /* J =240 */
(PID.TID 0000.0001)                 2.009400000000001E+03,      /* J =241 */
(PID.TID 0000.0001)                 2.009400000000000E+03,      /* J =242 */
(PID.TID 0000.0001)                 2.009400000000000E+03,      /* J =243 */
(PID.TID 0000.0001)      . . .
(PID.TID 0000.0001)                 2.009399999999994E+03,      /* J =318 */
(PID.TID 0000.0001)                 2.009399999999994E+03,      /* J =319 */
(PID.TID 0000.0001)                 2.009399999999994E+03       /* J =320 */
(PID.TID 0000.0001)     ;
(PID.TID 0000.0001) dxC =  /* dxC(:,1,:,1) ( units: m ) */
(PID.TID 0000.0001)                 6.600000000000000E+04,      /* I =  1 */
(PID.TID 0000.0001)                 6.400000000000000E+04,      /* I =  2 */
(PID.TID 0000.0001)                 6.000000000000000E+04,      /* I =  3 */
(PID.TID 0000.0001)      . . .
(PID.TID 0000.0001)                 2.008449999999997E+03,      /* I = 66 */
(PID.TID 0000.0001)                 2.008399999999994E+03,      /* I = 67 */
(PID.TID 0000.0001)                 2.008449999999997E+03,      /* I = 68 */
(PID.TID 0000.0001)                 2.008449999999997E+03,      /* I = 69 */
(PID.TID 0000.0001)                 2.008449999999997E+03,      /* I = 70 */
(PID.TID 0000.0001)                 2.008450000000004E+03,      /* I = 71 */
(PID.TID 0000.0001)      . . .
(PID.TID 0000.0001)                 2.008400000000000E+03,      /* I =134 */
(PID.TID 0000.0001)                 2.008450000000000E+03,      /* I =135 */
(PID.TID 0000.0001)                 2.008450000000000E+03,      /* I =136 */
(PID.TID 0000.0001)                 2.008450000000000E+03,      /* I =137 */
(PID.TID 0000.0001)                 2.008450000000000E+03,      /* I =138 */
(PID.TID 0000.0001)                 2.008400000000000E+03,      /* I =139 */
(PID.TID 0000.0001)      . . .
(PID.TID 0000.0001)                 2.008450000000004E+03,      /* I =202 */
(PID.TID 0000.0001)                 2.008449999999997E+03,      /* I =203 */
(PID.TID 0000.0001)                 2.008449999999997E+03,      /* I =204 */
(PID.TID 0000.0001)                 2.008449999999997E+03,      /* I =205 */
(PID.TID 0000.0001)                 2.008399999999994E+03,      /* I =206 */
(PID.TID 0000.0001)                 2.008449999999997E+03,      /* I =207 */
(PID.TID 0000.0001)      . . .
(PID.TID 0000.0001)                 6.000000000000000E+04,      /* I =270 */
(PID.TID 0000.0001)                 6.400000000000000E+04,      /* I =271 */
(PID.TID 0000.0001)                 6.600000000000000E+04       /* I =272 */
(PID.TID 0000.0001)     ;
(PID.TID 0000.0001) dxC =  /* dxC(1,:,1,:) ( units: m ) */
(PID.TID 0000.0001)   320 @  6.600000000000000E+04              /* J =  1:320 */
(PID.TID 0000.0001)     ;
(PID.TID 0000.0001) dyC =  /* dyC(:,1,:,1) ( units: m ) */
(PID.TID 0000.0001)   272 @  2.009400000000009E+03              /* I =  1:272 */
(PID.TID 0000.0001)     ;
(PID.TID 0000.0001) dyC =  /* dyC(1,:,1,:) ( units: m ) */
(PID.TID 0000.0001)                 2.009400000000009E+03,      /* J =  1 */
(PID.TID 0000.0001)                 2.009399999999994E+03,      /* J =  2 */
(PID.TID 0000.0001)                 2.009399999999994E+03,      /* J =  3 */
(PID.TID 0000.0001)      . . .
(PID.TID 0000.0001)                 2.009399999999994E+03,      /* J = 78 */
(PID.TID 0000.0001)                 2.009400000000023E+03,      /* J = 79 */
(PID.TID 0000.0001)                 2.009450000000012E+03,      /* J = 80 */
(PID.TID 0000.0001)                 2.009449999999983E+03,      /* J = 81 */
(PID.TID 0000.0001)                 2.009399999999994E+03,      /* J = 82 */
(PID.TID 0000.0001)                 2.009399999999994E+03,      /* J = 83 */
(PID.TID 0000.0001)      . . .
(PID.TID 0000.0001)                 2.009399999999994E+03,      /* J =158 */
(PID.TID 0000.0001)                 2.009399999999994E+03,      /* J =159 */
(PID.TID 0000.0001)                 2.009400000000009E+03,      /* J =160 */
(PID.TID 0000.0001)                 2.009400000000009E+03,      /* J =161 */
(PID.TID 0000.0001)                 2.009399999999994E+03,      /* J =162 */
(PID.TID 0000.0001)                 2.009399999999994E+03,      /* J =163 */
(PID.TID 0000.0001)      . . .
(PID.TID 0000.0001)                 2.009400000000000E+03,      /* J =238 */
(PID.TID 0000.0001)                 2.009400000000000E+03,      /* J =239 */
(PID.TID 0000.0001)                 2.009449999999999E+03,      /* J =240 */
(PID.TID 0000.0001)                 2.009450000000001E+03,      /* J =241 */
(PID.TID 0000.0001)                 2.009400000000001E+03,      /* J =242 */
(PID.TID 0000.0001)                 2.009400000000000E+03,      /* J =243 */
(PID.TID 0000.0001)      . . .
(PID.TID 0000.0001)                 2.009400000000009E+03,      /* J =318 */
(PID.TID 0000.0001)                 2.009399999999994E+03,      /* J =319 */
(PID.TID 0000.0001)                 2.009399999999994E+03       /* J =320 */
(PID.TID 0000.0001)     ;
(PID.TID 0000.0001) dxV =  /* dxV(:,1,:,1) ( units: m ) */
(PID.TID 0000.0001)                 6.600000000000000E+04,      /* I =  1 */
(PID.TID 0000.0001)                 6.400000000000000E+04,      /* I =  2 */
(PID.TID 0000.0001)                 6.000000000000000E+04,      /* I =  3 */
(PID.TID 0000.0001)      . . .
(PID.TID 0000.0001)                 2.008449999999997E+03,      /* I = 66 */
(PID.TID 0000.0001)                 2.008399999999994E+03,      /* I = 67 */
(PID.TID 0000.0001)                 2.008449999999997E+03,      /* I = 68 */
(PID.TID 0000.0001)                 2.008449999999997E+03,      /* I = 69 */
(PID.TID 0000.0001)                 2.008449999999997E+03,      /* I = 70 */
(PID.TID 0000.0001)                 2.008450000000004E+03,      /* I = 71 */
(PID.TID 0000.0001)      . . .
(PID.TID 0000.0001)                 2.008400000000000E+03,      /* I =134 */
(PID.TID 0000.0001)                 2.008450000000000E+03,      /* I =135 */
(PID.TID 0000.0001)                 2.008450000000000E+03,      /* I =136 */
(PID.TID 0000.0001)                 2.008450000000000E+03,      /* I =137 */
(PID.TID 0000.0001)                 2.008450000000000E+03,      /* I =138 */
(PID.TID 0000.0001)                 2.008400000000000E+03,      /* I =139 */
(PID.TID 0000.0001)      . . .
(PID.TID 0000.0001)                 2.008450000000004E+03,      /* I =202 */
(PID.TID 0000.0001)                 2.008449999999997E+03,      /* I =203 */
(PID.TID 0000.0001)                 2.008449999999997E+03,      /* I =204 */
(PID.TID 0000.0001)                 2.008449999999997E+03,      /* I =205 */
(PID.TID 0000.0001)                 2.008399999999994E+03,      /* I =206 */
(PID.TID 0000.0001)                 2.008449999999997E+03,      /* I =207 */
(PID.TID 0000.0001)      . . .
(PID.TID 0000.0001)                 6.000000000000000E+04,      /* I =270 */
(PID.TID 0000.0001)                 6.400000000000000E+04,      /* I =271 */
(PID.TID 0000.0001)                 6.600000000000000E+04       /* I =272 */
(PID.TID 0000.0001)     ;
(PID.TID 0000.0001) dxV =  /* dxV(1,:,1,:) ( units: m ) */
(PID.TID 0000.0001)   320 @  6.600000000000000E+04              /* J =  1:320 */
(PID.TID 0000.0001)     ;
(PID.TID 0000.0001) dyU =  /* dyU(:,1,:,1) ( units: m ) */
(PID.TID 0000.0001)   272 @  2.009400000000009E+03              /* I =  1:272 */
(PID.TID 0000.0001)     ;
(PID.TID 0000.0001) dyU =  /* dyU(1,:,1,:) ( units: m ) */
(PID.TID 0000.0001)                 2.009400000000009E+03,      /* J =  1 */
(PID.TID 0000.0001)                 2.009399999999994E+03,      /* J =  2 */
(PID.TID 0000.0001)                 2.009399999999994E+03,      /* J =  3 */
(PID.TID 0000.0001)      . . .
(PID.TID 0000.0001)                 2.009399999999994E+03,      /* J = 78 */
(PID.TID 0000.0001)                 2.009400000000023E+03,      /* J = 79 */
(PID.TID 0000.0001)                 2.009450000000012E+03,      /* J = 80 */
(PID.TID 0000.0001)                 2.009449999999983E+03,      /* J = 81 */
(PID.TID 0000.0001)                 2.009399999999994E+03,      /* J = 82 */
(PID.TID 0000.0001)                 2.009399999999994E+03,      /* J = 83 */
(PID.TID 0000.0001)      . . .
(PID.TID 0000.0001)                 2.009399999999994E+03,      /* J =158 */
(PID.TID 0000.0001)                 2.009399999999994E+03,      /* J =159 */
(PID.TID 0000.0001)                 2.009400000000009E+03,      /* J =160 */
(PID.TID 0000.0001)                 2.009400000000009E+03,      /* J =161 */
(PID.TID 0000.0001)                 2.009399999999994E+03,      /* J =162 */
(PID.TID 0000.0001)                 2.009399999999994E+03,      /* J =163 */
(PID.TID 0000.0001)      . . .
(PID.TID 0000.0001)                 2.009400000000000E+03,      /* J =238 */
(PID.TID 0000.0001)                 2.009400000000000E+03,      /* J =239 */
(PID.TID 0000.0001)                 2.009449999999999E+03,      /* J =240 */
(PID.TID 0000.0001)                 2.009450000000001E+03,      /* J =241 */
(PID.TID 0000.0001)                 2.009400000000001E+03,      /* J =242 */
(PID.TID 0000.0001)                 2.009400000000000E+03,      /* J =243 */
(PID.TID 0000.0001)      . . .
(PID.TID 0000.0001)                 2.009400000000009E+03,      /* J =318 */
(PID.TID 0000.0001)                 2.009399999999994E+03,      /* J =319 */
(PID.TID 0000.0001)                 2.009399999999994E+03       /* J =320 */
(PID.TID 0000.0001)     ;
(PID.TID 0000.0001) rA  =  /* rA (:,1,:,1) ( units: m^2 ) */
(PID.TID 0000.0001)                 1.326204000000015E+08,      /* I =  1 */
(PID.TID 0000.0001)                 1.245828000000014E+08,      /* I =  2 */
(PID.TID 0000.0001)                 1.165452000000014E+08,      /* I =  3 */
(PID.TID 0000.0001)      . . .
(PID.TID 0000.0001)                 4.035678960000035E+06,      /* I = 66 */
(PID.TID 0000.0001)                 4.035678960000035E+06,      /* I = 67 */
(PID.TID 0000.0001)                 4.035879900000047E+06,      /* I = 68 */
(PID.TID 0000.0001)                 4.035678960000035E+06,      /* I = 69 */
(PID.TID 0000.0001)                 4.035879900000047E+06,      /* I = 70 */
(PID.TID 0000.0001)                 4.035678960000064E+06,      /* I = 71 */
(PID.TID 0000.0001)      . . .
(PID.TID 0000.0001)                 4.035678960000048E+06,      /* I =134 */
(PID.TID 0000.0001)                 4.035879900000046E+06,      /* I =135 */
(PID.TID 0000.0001)                 4.035678960000047E+06,      /* I =136 */
(PID.TID 0000.0001)                 4.035879900000046E+06,      /* I =137 */
(PID.TID 0000.0001)                 4.035678960000048E+06,      /* I =138 */
(PID.TID 0000.0001)                 4.035678960000046E+06,      /* I =139 */
(PID.TID 0000.0001)      . . .
(PID.TID 0000.0001)                 4.035879900000047E+06,      /* I =202 */
(PID.TID 0000.0001)                 4.035678960000035E+06,      /* I =203 */
(PID.TID 0000.0001)                 4.035879900000047E+06,      /* I =204 */
(PID.TID 0000.0001)                 4.035678960000035E+06,      /* I =205 */
(PID.TID 0000.0001)                 4.035678960000035E+06,      /* I =206 */
(PID.TID 0000.0001)                 4.035879900000047E+06,      /* I =207 */
(PID.TID 0000.0001)      . . .
(PID.TID 0000.0001)                 1.245828000000014E+08,      /* I =270 */
(PID.TID 0000.0001)                 1.326204000000015E+08,      /* I =271 */
(PID.TID 0000.0001)                 1.326204000000015E+08       /* I =272 */
(PID.TID 0000.0001)     ;
(PID.TID 0000.0001) rA  =  /* rA (1,:,1,:) ( units: m^2 ) */
(PID.TID 0000.0001)                 1.326204000000015E+08,      /* J =  1 */
(PID.TID 0000.0001)                 1.326203999999977E+08,      /* J =  2 */
(PID.TID 0000.0001)                 1.326204000000015E+08,      /* J =  3 */
(PID.TID 0000.0001)      . . .
(PID.TID 0000.0001)                 1.326204000000015E+08,      /* J = 78 */
(PID.TID 0000.0001)                 1.326204000000015E+08,      /* J = 79 */
(PID.TID 0000.0001)                 1.326270000000000E+08,      /* J = 80 */
(PID.TID 0000.0001)                 1.326203999999977E+08,      /* J = 81 */
(PID.TID 0000.0001)                 1.326204000000015E+08,      /* J = 82 */
(PID.TID 0000.0001)                 1.326203999999977E+08,      /* J = 83 */
(PID.TID 0000.0001)      . . .
(PID.TID 0000.0001)                 1.326203999999996E+08,      /* J =158 */
(PID.TID 0000.0001)                 1.326203999999996E+08,      /* J =159 */
(PID.TID 0000.0001)                 1.326204000000015E+08,      /* J =160 */
(PID.TID 0000.0001)                 1.326203999999996E+08,      /* J =161 */
(PID.TID 0000.0001)                 1.326203999999996E+08,      /* J =162 */
(PID.TID 0000.0001)                 1.326203999999996E+08,      /* J =163 */
(PID.TID 0000.0001)      . . .
(PID.TID 0000.0001)                 1.326204000000001E+08,      /* J =238 */
(PID.TID 0000.0001)                 1.326203999999999E+08,      /* J =239 */
(PID.TID 0000.0001)                 1.326270000000000E+08,      /* J =240 */
(PID.TID 0000.0001)                 1.326204000000001E+08,      /* J =241 */
(PID.TID 0000.0001)                 1.326204000000000E+08,      /* J =242 */
(PID.TID 0000.0001)                 1.326204000000000E+08,      /* J =243 */
(PID.TID 0000.0001)      . . .
(PID.TID 0000.0001)                 1.326203999999996E+08,      /* J =318 */
(PID.TID 0000.0001)                 1.326203999999996E+08,      /* J =319 */
(PID.TID 0000.0001)                 1.326203999999996E+08       /* J =320 */
(PID.TID 0000.0001)     ;
(PID.TID 0000.0001) rAw =  /* rAw(:,1,:,1) ( units: m^2 ) */
(PID.TID 0000.0001)                 1.326204000000015E+08,      /* I =  1 */
(PID.TID 0000.0001)                 1.286016000000015E+08,      /* I =  2 */
(PID.TID 0000.0001)                 1.205640000000014E+08,      /* I =  3 */
(PID.TID 0000.0001)      . . .
(PID.TID 0000.0001)                 4.035779430000041E+06,      /* I = 66 */
(PID.TID 0000.0001)                 4.035678960000035E+06,      /* I = 67 */
(PID.TID 0000.0001)                 4.035779430000041E+06,      /* I = 68 */
(PID.TID 0000.0001)                 4.035779430000041E+06,      /* I = 69 */
(PID.TID 0000.0001)                 4.035779430000041E+06,      /* I = 70 */
(PID.TID 0000.0001)                 4.035779430000056E+06,      /* I = 71 */
(PID.TID 0000.0001)      . . .
(PID.TID 0000.0001)                 4.035678960000047E+06,      /* I =134 */
(PID.TID 0000.0001)                 4.035779430000047E+06,      /* I =135 */
(PID.TID 0000.0001)                 4.035779430000046E+06,      /* I =136 */
(PID.TID 0000.0001)                 4.035779430000046E+06,      /* I =137 */
(PID.TID 0000.0001)                 4.035779430000047E+06,      /* I =138 */
(PID.TID 0000.0001)                 4.035678960000047E+06,      /* I =139 */
(PID.TID 0000.0001)      . . .
(PID.TID 0000.0001)                 4.035779430000056E+06,      /* I =202 */
(PID.TID 0000.0001)                 4.035779430000041E+06,      /* I =203 */
(PID.TID 0000.0001)                 4.035779430000041E+06,      /* I =204 */
(PID.TID 0000.0001)                 4.035779430000041E+06,      /* I =205 */
(PID.TID 0000.0001)                 4.035678960000035E+06,      /* I =206 */
(PID.TID 0000.0001)                 4.035779430000041E+06,      /* I =207 */
(PID.TID 0000.0001)      . . .
(PID.TID 0000.0001)                 1.205640000000014E+08,      /* I =270 */
(PID.TID 0000.0001)                 1.286016000000015E+08,      /* I =271 */
(PID.TID 0000.0001)                 1.326204000000015E+08       /* I =272 */
(PID.TID 0000.0001)     ;
(PID.TID 0000.0001) rAw =  /* rAw(1,:,1,:) ( units: m^2 ) */
(PID.TID 0000.0001)                 1.326204000000015E+08,      /* J =  1 */
(PID.TID 0000.0001)                 1.326203999999977E+08,      /* J =  2 */
(PID.TID 0000.0001)                 1.326204000000015E+08,      /* J =  3 */
(PID.TID 0000.0001)      . . .
(PID.TID 0000.0001)                 1.326204000000015E+08,      /* J = 78 */
(PID.TID 0000.0001)                 1.326204000000015E+08,      /* J = 79 */
(PID.TID 0000.0001)                 1.326270000000000E+08,      /* J = 80 */
(PID.TID 0000.0001)                 1.326203999999977E+08,      /* J = 81 */
(PID.TID 0000.0001)                 1.326204000000015E+08,      /* J = 82 */
(PID.TID 0000.0001)                 1.326203999999977E+08,      /* J = 83 */
(PID.TID 0000.0001)      . . .
(PID.TID 0000.0001)                 1.326203999999996E+08,      /* J =158 */
(PID.TID 0000.0001)                 1.326203999999996E+08,      /* J =159 */
(PID.TID 0000.0001)                 1.326204000000015E+08,      /* J =160 */
(PID.TID 0000.0001)                 1.326203999999996E+08,      /* J =161 */
(PID.TID 0000.0001)                 1.326203999999996E+08,      /* J =162 */
(PID.TID 0000.0001)                 1.326203999999996E+08,      /* J =163 */
(PID.TID 0000.0001)      . . .
(PID.TID 0000.0001)                 1.326204000000001E+08,      /* J =238 */
(PID.TID 0000.0001)                 1.326203999999999E+08,      /* J =239 */
(PID.TID 0000.0001)                 1.326270000000000E+08,      /* J =240 */
(PID.TID 0000.0001)                 1.326204000000001E+08,      /* J =241 */
(PID.TID 0000.0001)                 1.326204000000000E+08,      /* J =242 */
(PID.TID 0000.0001)                 1.326204000000000E+08,      /* J =243 */
(PID.TID 0000.0001)      . . .
(PID.TID 0000.0001)                 1.326203999999996E+08,      /* J =318 */
(PID.TID 0000.0001)                 1.326203999999996E+08,      /* J =319 */
(PID.TID 0000.0001)                 1.326203999999996E+08       /* J =320 */
(PID.TID 0000.0001)     ;
(PID.TID 0000.0001) rAs =  /* rAs(:,1,:,1) ( units: m^2 ) */
(PID.TID 0000.0001)                 1.326204000000006E+08,      /* I =  1 */
(PID.TID 0000.0001)                 1.245828000000005E+08,      /* I =  2 */
(PID.TID 0000.0001)                 1.165452000000005E+08,      /* I =  3 */
(PID.TID 0000.0001)      . . .
(PID.TID 0000.0001)                 4.035678960000006E+06,      /* I = 66 */
(PID.TID 0000.0001)                 4.035678960000006E+06,      /* I = 67 */
(PID.TID 0000.0001)                 4.035879900000018E+06,      /* I = 68 */
(PID.TID 0000.0001)                 4.035678960000006E+06,      /* I = 69 */
(PID.TID 0000.0001)                 4.035879900000018E+06,      /* I = 70 */
(PID.TID 0000.0001)                 4.035678960000035E+06,      /* I = 71 */
(PID.TID 0000.0001)      . . .
(PID.TID 0000.0001)                 4.035678960000019E+06,      /* I =134 */
(PID.TID 0000.0001)                 4.035879900000017E+06,      /* I =135 */
(PID.TID 0000.0001)                 4.035678960000018E+06,      /* I =136 */
(PID.TID 0000.0001)                 4.035879900000017E+06,      /* I =137 */
(PID.TID 0000.0001)                 4.035678960000019E+06,      /* I =138 */
(PID.TID 0000.0001)                 4.035678960000017E+06,      /* I =139 */
(PID.TID 0000.0001)      . . .
(PID.TID 0000.0001)                 4.035879900000018E+06,      /* I =202 */
(PID.TID 0000.0001)                 4.035678960000006E+06,      /* I =203 */
(PID.TID 0000.0001)                 4.035879900000018E+06,      /* I =204 */
(PID.TID 0000.0001)                 4.035678960000006E+06,      /* I =205 */
(PID.TID 0000.0001)                 4.035678960000006E+06,      /* I =206 */
(PID.TID 0000.0001)                 4.035879900000018E+06,      /* I =207 */
(PID.TID 0000.0001)      . . .
(PID.TID 0000.0001)                 1.245828000000005E+08,      /* I =270 */
(PID.TID 0000.0001)                 1.326204000000006E+08,      /* I =271 */
(PID.TID 0000.0001)                 1.326204000000006E+08       /* I =272 */
(PID.TID 0000.0001)     ;
(PID.TID 0000.0001) rAs =  /* rAs(1,:,1,:) ( units: m^2 ) */
(PID.TID 0000.0001)                 1.326204000000006E+08,      /* J =  1 */
(PID.TID 0000.0001)                 1.326203999999996E+08,      /* J =  2 */
(PID.TID 0000.0001)                 1.326203999999996E+08,      /* J =  3 */
(PID.TID 0000.0001)      . . .
(PID.TID 0000.0001)                 1.326203999999996E+08,      /* J = 78 */
(PID.TID 0000.0001)                 1.326204000000015E+08,      /* J = 79 */
(PID.TID 0000.0001)                 1.326237000000008E+08,      /* J = 80 */
(PID.TID 0000.0001)                 1.326236999999989E+08,      /* J = 81 */
(PID.TID 0000.0001)                 1.326203999999996E+08,      /* J = 82 */
(PID.TID 0000.0001)                 1.326203999999996E+08,      /* J = 83 */
(PID.TID 0000.0001)      . . .
(PID.TID 0000.0001)                 1.326203999999996E+08,      /* J =158 */
(PID.TID 0000.0001)                 1.326203999999996E+08,      /* J =159 */
(PID.TID 0000.0001)                 1.326204000000006E+08,      /* J =160 */
(PID.TID 0000.0001)                 1.326204000000006E+08,      /* J =161 */
(PID.TID 0000.0001)                 1.326203999999996E+08,      /* J =162 */
(PID.TID 0000.0001)                 1.326203999999996E+08,      /* J =163 */
(PID.TID 0000.0001)      . . .
(PID.TID 0000.0001)                 1.326204000000000E+08,      /* J =238 */
(PID.TID 0000.0001)                 1.326204000000000E+08,      /* J =239 */
(PID.TID 0000.0001)                 1.326236999999999E+08,      /* J =240 */
(PID.TID 0000.0001)                 1.326237000000000E+08,      /* J =241 */
(PID.TID 0000.0001)                 1.326204000000000E+08,      /* J =242 */
(PID.TID 0000.0001)                 1.326204000000000E+08,      /* J =243 */
(PID.TID 0000.0001)      . . .
(PID.TID 0000.0001)                 1.326204000000006E+08,      /* J =318 */
(PID.TID 0000.0001)                 1.326203999999996E+08,      /* J =319 */
(PID.TID 0000.0001)                 1.326203999999996E+08       /* J =320 */
(PID.TID 0000.0001)     ;
(PID.TID 0000.0001) globalArea = /* Integrated horizontal Area (m^2) */
(PID.TID 0000.0001)                 8.632280513999987E+11
(PID.TID 0000.0001)     ;
(PID.TID 0000.0001) // =======================================================
(PID.TID 0000.0001) // End of Model config. summary
(PID.TID 0000.0001) // =======================================================
(PID.TID 0000.0001) 
(PID.TID 0000.0001) == Packages configuration : Check & print summary ==
(PID.TID 0000.0001) 
(PID.TID 0000.0001) OBCS_CHECK: #define ALLOW_OBCS
(PID.TID 0000.0001) // =======================================================
(PID.TID 0000.0001) // OBCS_CHECK: OBCS configuration summary
(PID.TID 0000.0001) // =======================================================
(PID.TID 0000.0001) 
(PID.TID 0000.0001) useOBCSprescribe = /* prescribe OB values */
(PID.TID 0000.0001)                   F
(PID.TID 0000.0001)     ;
(PID.TID 0000.0001) useOBCSbalance = /* balance the flow through OB */
(PID.TID 0000.0001)                   T
(PID.TID 0000.0001)     ;
(PID.TID 0000.0001) OBCSbalanceSurf = /* include surf. flux in balance */
(PID.TID 0000.0001)                   F
(PID.TID 0000.0001)     ;
(PID.TID 0000.0001) OBCS_balanceFacN = /* Northern OB Factor for balancing OB flow [-] */
(PID.TID 0000.0001)                 1.000000000000000E+00
(PID.TID 0000.0001)     ;
(PID.TID 0000.0001) OBCS_balanceFacS = /* Southern OB Factor for balancing OB flow [-] */
(PID.TID 0000.0001)                 1.000000000000000E+00
(PID.TID 0000.0001)     ;
(PID.TID 0000.0001) OBCS_balanceFacE = /* Eastern  OB Factor for balancing OB flow [-] */
(PID.TID 0000.0001)                 1.000000000000000E+00
(PID.TID 0000.0001)     ;
(PID.TID 0000.0001) OBCS_balanceFacW = /* Western  OB Factor for balancing OB flow [-] */
(PID.TID 0000.0001)                 1.000000000000000E+00
(PID.TID 0000.0001)     ;
(PID.TID 0000.0001) OBCSfixTopo =  /* mod. topo to have zero gradient across boundaries. */
(PID.TID 0000.0001)                   F
(PID.TID 0000.0001)     ;
(PID.TID 0000.0001) OBCS_uvApplyFac = /* Factor to apply to U,V 2nd column/row */
(PID.TID 0000.0001)                 1.000000000000000E+00
(PID.TID 0000.0001)     ;
(PID.TID 0000.0001) OBCS_u1_adv_T = /* Temp uses upwind adv-scheme @ OB */
(PID.TID 0000.0001)                       0
(PID.TID 0000.0001)     ;
(PID.TID 0000.0001) OBCS_u1_adv_S = /* Salt uses upwind adv-scheme @ OB */
(PID.TID 0000.0001)                       0
(PID.TID 0000.0001)     ;
(PID.TID 0000.0001) OBCS_monitorFreq = /* monitor output frequency [s] */
(PID.TID 0000.0001)                 1.200000000000000E+03
(PID.TID 0000.0001)     ;
(PID.TID 0000.0001) OBCS_monSelect = /* select group of variables to monitor */
(PID.TID 0000.0001)                       0
(PID.TID 0000.0001)     ;
(PID.TID 0000.0001) OBCSprintDiags =  /* print some OBCS diagnostics. */
(PID.TID 0000.0001)                   F
(PID.TID 0000.0001)     ;
(PID.TID 0000.0001) useOBCStides = /* apply tidal forcing through OB */
(PID.TID 0000.0001)                   F
(PID.TID 0000.0001)     ;
(PID.TID 0000.0001) useOrlanskiNorth =  /* use Orlanski for northern bound. */
(PID.TID 0000.0001)                   F
(PID.TID 0000.0001)     ;
(PID.TID 0000.0001) useOrlanskiSouth =  /* use Orlanski for southern bound. */
(PID.TID 0000.0001)                   T
(PID.TID 0000.0001)     ;
(PID.TID 0000.0001) useOrlanskiEast  =  /* use Orlanski for eastern bound. */
(PID.TID 0000.0001)                   F
(PID.TID 0000.0001)     ;
(PID.TID 0000.0001) useOrlanskiWest  =  /* use Orlanski for western bound. */
(PID.TID 0000.0001)                   F
(PID.TID 0000.0001)     ;
(PID.TID 0000.0001) useStevensNorth =  /* use Stevens for northern bound. */
(PID.TID 0000.0001)                   F
(PID.TID 0000.0001)     ;
(PID.TID 0000.0001) useStevensSouth =  /* use Stevens for southern bound. */
(PID.TID 0000.0001)                   F
(PID.TID 0000.0001)     ;
(PID.TID 0000.0001) useStevensEast  =  /* use Stevens for eastern bound. */
(PID.TID 0000.0001)                   F
(PID.TID 0000.0001)     ;
(PID.TID 0000.0001) useStevensWest  =  /* use Stevens for western bound. */
(PID.TID 0000.0001)                   F
(PID.TID 0000.0001)     ;
(PID.TID 0000.0001) useStevensPhaseVel  =  /* include phase vel. term. */
(PID.TID 0000.0001)                   T
(PID.TID 0000.0001)     ;
(PID.TID 0000.0001) useStevensAdvection  =  /* include advection term. */
(PID.TID 0000.0001)                   T
(PID.TID 0000.0001)     ;
(PID.TID 0000.0001) TrelaxStevens = /* relaxation time scale for theta ( s ). */
(PID.TID 0000.0001)                 0.000000000000000E+00
(PID.TID 0000.0001)     ;
(PID.TID 0000.0001) SrelaxStevens = /* relaxation time scale for salinity ( s ). */
(PID.TID 0000.0001)                 0.000000000000000E+00
(PID.TID 0000.0001)     ;
(PID.TID 0000.0001) useOBCSSponge =  /* use sponge along boundaries */
(PID.TID 0000.0001)                   F
(PID.TID 0000.0001)     ;
(PID.TID 0000.0001) useSeaiceSponge =  /* use sponge for sea ice variables */
(PID.TID 0000.0001)                   F
(PID.TID 0000.0001)     ;
(PID.TID 0000.0001) useSeaiceNeumann =  /* use Neumann conditions for sea ice variables */
(PID.TID 0000.0001)                   F
(PID.TID 0000.0001)     ;
(PID.TID 0000.0001) OB_indexNone = /* null value for OB index (i.e. no OB) */
(PID.TID 0000.0001)                     -99
(PID.TID 0000.0001)     ;
(PID.TID 0000.0001) ======== Tile bi=   1 , bj=   1 ========
(PID.TID 0000.0001)  OB_Jn = /* Northern OB local indices */
(PID.TID 0000.0001)    23 @      -99                            /* I = -2: 20 */
(PID.TID 0000.0001)  OB_Js = /* Southern OB local indices */
(PID.TID 0000.0001)    23 @        1                            /* I = -2: 20 */
(PID.TID 0000.0001)  OB_Ie = /* Eastern OB local indices */
(PID.TID 0000.0001)    26 @      -99                            /* J = -2: 23 */
(PID.TID 0000.0001)  OB_Iw = /* Western OB local indices */
(PID.TID 0000.0001)    26 @      -99                            /* J = -2: 23 */
(PID.TID 0000.0001) ======== Tile bi=   2 , bj=   1 ========
(PID.TID 0000.0001)  OB_Jn = /* Northern OB local indices */
(PID.TID 0000.0001)    23 @      -99                            /* I = -2: 20 */
(PID.TID 0000.0001)  OB_Js = /* Southern OB local indices */
(PID.TID 0000.0001)    23 @        1                            /* I = -2: 20 */
(PID.TID 0000.0001)  OB_Ie = /* Eastern OB local indices */
(PID.TID 0000.0001)    26 @      -99                            /* J = -2: 23 */
(PID.TID 0000.0001)  OB_Iw = /* Western OB local indices */
(PID.TID 0000.0001)    26 @      -99                            /* J = -2: 23 */
(PID.TID 0000.0001) ======== Tile bi=   3 , bj=   1 ========
(PID.TID 0000.0001)  OB_Jn = /* Northern OB local indices */
(PID.TID 0000.0001)    23 @      -99                            /* I = -2: 20 */
(PID.TID 0000.0001)  OB_Js = /* Southern OB local indices */
(PID.TID 0000.0001)    23 @        1                            /* I = -2: 20 */
(PID.TID 0000.0001)  OB_Ie = /* Eastern OB local indices */
(PID.TID 0000.0001)    26 @      -99                            /* J = -2: 23 */
(PID.TID 0000.0001)  OB_Iw = /* Western OB local indices */
(PID.TID 0000.0001)    26 @      -99                            /* J = -2: 23 */
(PID.TID 0000.0001) ======== Tile bi=   4 , bj=   1 ========
(PID.TID 0000.0001)  OB_Jn = /* Northern OB local indices */
(PID.TID 0000.0001)    23 @      -99                            /* I = -2: 20 */
(PID.TID 0000.0001)  OB_Js = /* Southern OB local indices */
(PID.TID 0000.0001)    23 @        1                            /* I = -2: 20 */
(PID.TID 0000.0001)  OB_Ie = /* Eastern OB local indices */
(PID.TID 0000.0001)    26 @      -99                            /* J = -2: 23 */
(PID.TID 0000.0001)  OB_Iw = /* Western OB local indices */
(PID.TID 0000.0001)    26 @      -99                            /* J = -2: 23 */
(PID.TID 0000.0001) ======== Tile bi=   5 , bj=   1 ========
(PID.TID 0000.0001)  OB_Jn = /* Northern OB local indices */
(PID.TID 0000.0001)    23 @      -99                            /* I = -2: 20 */
(PID.TID 0000.0001)  OB_Js = /* Southern OB local indices */
(PID.TID 0000.0001)    23 @        1                            /* I = -2: 20 */
(PID.TID 0000.0001)  OB_Ie = /* Eastern OB local indices */
(PID.TID 0000.0001)    26 @      -99                            /* J = -2: 23 */
(PID.TID 0000.0001)  OB_Iw = /* Western OB local indices */
(PID.TID 0000.0001)    26 @      -99                            /* J = -2: 23 */
(PID.TID 0000.0001) ======== Tile bi=   6 , bj=   1 ========
(PID.TID 0000.0001)  OB_Jn = /* Northern OB local indices */
(PID.TID 0000.0001)    23 @      -99                            /* I = -2: 20 */
(PID.TID 0000.0001)  OB_Js = /* Southern OB local indices */
(PID.TID 0000.0001)    23 @        1                            /* I = -2: 20 */
(PID.TID 0000.0001)  OB_Ie = /* Eastern OB local indices */
(PID.TID 0000.0001)    26 @      -99                            /* J = -2: 23 */
(PID.TID 0000.0001)  OB_Iw = /* Western OB local indices */
(PID.TID 0000.0001)    26 @      -99                            /* J = -2: 23 */
(PID.TID 0000.0001) ======== Tile bi=   7 , bj=   1 ========
(PID.TID 0000.0001)  OB_Jn = /* Northern OB local indices */
(PID.TID 0000.0001)    23 @      -99                            /* I = -2: 20 */
(PID.TID 0000.0001)  OB_Js = /* Southern OB local indices */
(PID.TID 0000.0001)    23 @        1                            /* I = -2: 20 */
(PID.TID 0000.0001)  OB_Ie = /* Eastern OB local indices */
(PID.TID 0000.0001)    26 @      -99                            /* J = -2: 23 */
(PID.TID 0000.0001)  OB_Iw = /* Western OB local indices */
(PID.TID 0000.0001)    26 @      -99                            /* J = -2: 23 */
(PID.TID 0000.0001) ======== Tile bi=   8 , bj=   1 ========
(PID.TID 0000.0001)  OB_Jn = /* Northern OB local indices */
(PID.TID 0000.0001)    23 @      -99                            /* I = -2: 20 */
(PID.TID 0000.0001)  OB_Js = /* Southern OB local indices */
(PID.TID 0000.0001)    23 @        1                            /* I = -2: 20 */
(PID.TID 0000.0001)  OB_Ie = /* Eastern OB local indices */
(PID.TID 0000.0001)    26 @      -99                            /* J = -2: 23 */
(PID.TID 0000.0001)  OB_Iw = /* Western OB local indices */
(PID.TID 0000.0001)    26 @      -99                            /* J = -2: 23 */
(PID.TID 0000.0001) ======== Tile bi=   9 , bj=   1 ========
(PID.TID 0000.0001)  OB_Jn = /* Northern OB local indices */
(PID.TID 0000.0001)    23 @      -99                            /* I = -2: 20 */
(PID.TID 0000.0001)  OB_Js = /* Southern OB local indices */
(PID.TID 0000.0001)    23 @        1                            /* I = -2: 20 */
(PID.TID 0000.0001)  OB_Ie = /* Eastern OB local indices */
(PID.TID 0000.0001)    26 @      -99                            /* J = -2: 23 */
(PID.TID 0000.0001)  OB_Iw = /* Western OB local indices */
(PID.TID 0000.0001)    26 @      -99                            /* J = -2: 23 */
(PID.TID 0000.0001) ======== Tile bi=  10 , bj=   1 ========
(PID.TID 0000.0001)  OB_Jn = /* Northern OB local indices */
(PID.TID 0000.0001)    23 @      -99                            /* I = -2: 20 */
(PID.TID 0000.0001)  OB_Js = /* Southern OB local indices */
(PID.TID 0000.0001)    23 @        1                            /* I = -2: 20 */
(PID.TID 0000.0001)  OB_Ie = /* Eastern OB local indices */
(PID.TID 0000.0001)    26 @      -99                            /* J = -2: 23 */
(PID.TID 0000.0001)  OB_Iw = /* Western OB local indices */
(PID.TID 0000.0001)    26 @      -99                            /* J = -2: 23 */
(PID.TID 0000.0001) ======== Tile bi=  11 , bj=   1 ========
(PID.TID 0000.0001)  OB_Jn = /* Northern OB local indices */
(PID.TID 0000.0001)    23 @      -99                            /* I = -2: 20 */
(PID.TID 0000.0001)  OB_Js = /* Southern OB local indices */
(PID.TID 0000.0001)    23 @        1                            /* I = -2: 20 */
(PID.TID 0000.0001)  OB_Ie = /* Eastern OB local indices */
(PID.TID 0000.0001)    26 @      -99                            /* J = -2: 23 */
(PID.TID 0000.0001)  OB_Iw = /* Western OB local indices */
(PID.TID 0000.0001)    26 @      -99                            /* J = -2: 23 */
(PID.TID 0000.0001) ======== Tile bi=  12 , bj=   1 ========
(PID.TID 0000.0001)  OB_Jn = /* Northern OB local indices */
(PID.TID 0000.0001)    23 @      -99                            /* I = -2: 20 */
(PID.TID 0000.0001)  OB_Js = /* Southern OB local indices */
(PID.TID 0000.0001)    23 @        1                            /* I = -2: 20 */
(PID.TID 0000.0001)  OB_Ie = /* Eastern OB local indices */
(PID.TID 0000.0001)    26 @      -99                            /* J = -2: 23 */
(PID.TID 0000.0001)  OB_Iw = /* Western OB local indices */
(PID.TID 0000.0001)    26 @      -99                            /* J = -2: 23 */
(PID.TID 0000.0001) ======== Tile bi=  13 , bj=   1 ========
(PID.TID 0000.0001)  OB_Jn = /* Northern OB local indices */
(PID.TID 0000.0001)    23 @      -99                            /* I = -2: 20 */
(PID.TID 0000.0001)  OB_Js = /* Southern OB local indices */
(PID.TID 0000.0001)    23 @        1                            /* I = -2: 20 */
(PID.TID 0000.0001)  OB_Ie = /* Eastern OB local indices */
(PID.TID 0000.0001)    26 @      -99                            /* J = -2: 23 */
(PID.TID 0000.0001)  OB_Iw = /* Western OB local indices */
(PID.TID 0000.0001)    26 @      -99                            /* J = -2: 23 */
(PID.TID 0000.0001) ======== Tile bi=  14 , bj=   1 ========
(PID.TID 0000.0001)  OB_Jn = /* Northern OB local indices */
(PID.TID 0000.0001)    23 @      -99                            /* I = -2: 20 */
(PID.TID 0000.0001)  OB_Js = /* Southern OB local indices */
(PID.TID 0000.0001)    23 @        1                            /* I = -2: 20 */
(PID.TID 0000.0001)  OB_Ie = /* Eastern OB local indices */
(PID.TID 0000.0001)    26 @      -99                            /* J = -2: 23 */
(PID.TID 0000.0001)  OB_Iw = /* Western OB local indices */
(PID.TID 0000.0001)    26 @      -99                            /* J = -2: 23 */
(PID.TID 0000.0001) ======== Tile bi=  15 , bj=   1 ========
(PID.TID 0000.0001)  OB_Jn = /* Northern OB local indices */
(PID.TID 0000.0001)    23 @      -99                            /* I = -2: 20 */
(PID.TID 0000.0001)  OB_Js = /* Southern OB local indices */
(PID.TID 0000.0001)    23 @        1                            /* I = -2: 20 */
(PID.TID 0000.0001)  OB_Ie = /* Eastern OB local indices */
(PID.TID 0000.0001)    26 @      -99                            /* J = -2: 23 */
(PID.TID 0000.0001)  OB_Iw = /* Western OB local indices */
(PID.TID 0000.0001)    26 @      -99                            /* J = -2: 23 */
(PID.TID 0000.0001) ======== Tile bi=  16 , bj=   1 ========
(PID.TID 0000.0001)  OB_Jn = /* Northern OB local indices */
(PID.TID 0000.0001)    23 @      -99                            /* I = -2: 20 */
(PID.TID 0000.0001)  OB_Js = /* Southern OB local indices */
(PID.TID 0000.0001)    23 @        1                            /* I = -2: 20 */
(PID.TID 0000.0001)  OB_Ie = /* Eastern OB local indices */
(PID.TID 0000.0001)    26 @      -99                            /* J = -2: 23 */
(PID.TID 0000.0001)  OB_Iw = /* Western OB local indices */
(PID.TID 0000.0001)    26 @      -99                            /* J = -2: 23 */
(PID.TID 0000.0001) ======== Tile bi=   1 , bj=   2 ========
(PID.TID 0000.0001)  OB_Jn = /* Northern OB local indices */
(PID.TID 0000.0001)    23 @      -99                            /* I = -2: 20 */
(PID.TID 0000.0001)  OB_Js = /* Southern OB local indices */
(PID.TID 0000.0001)    23 @      -99                            /* I = -2: 20 */
(PID.TID 0000.0001)  OB_Ie = /* Eastern OB local indices */
(PID.TID 0000.0001)    26 @      -99                            /* J = -2: 23 */
(PID.TID 0000.0001)  OB_Iw = /* Western OB local indices */
(PID.TID 0000.0001)    26 @      -99                            /* J = -2: 23 */
(PID.TID 0000.0001) ======== Tile bi=   2 , bj=   2 ========
(PID.TID 0000.0001)  OB_Jn = /* Northern OB local indices */
(PID.TID 0000.0001)    23 @      -99                            /* I = -2: 20 */
(PID.TID 0000.0001)  OB_Js = /* Southern OB local indices */
(PID.TID 0000.0001)    23 @      -99                            /* I = -2: 20 */
(PID.TID 0000.0001)  OB_Ie = /* Eastern OB local indices */
(PID.TID 0000.0001)    26 @      -99                            /* J = -2: 23 */
(PID.TID 0000.0001)  OB_Iw = /* Western OB local indices */
(PID.TID 0000.0001)    26 @      -99                            /* J = -2: 23 */
(PID.TID 0000.0001) ======== Tile bi=   3 , bj=   2 ========
(PID.TID 0000.0001)  OB_Jn = /* Northern OB local indices */
(PID.TID 0000.0001)    23 @      -99                            /* I = -2: 20 */
(PID.TID 0000.0001)  OB_Js = /* Southern OB local indices */
(PID.TID 0000.0001)    23 @      -99                            /* I = -2: 20 */
(PID.TID 0000.0001)  OB_Ie = /* Eastern OB local indices */
(PID.TID 0000.0001)    26 @      -99                            /* J = -2: 23 */
(PID.TID 0000.0001)  OB_Iw = /* Western OB local indices */
(PID.TID 0000.0001)    26 @      -99                            /* J = -2: 23 */
(PID.TID 0000.0001) ======== Tile bi=   4 , bj=   2 ========
(PID.TID 0000.0001)  OB_Jn = /* Northern OB local indices */
(PID.TID 0000.0001)    23 @      -99                            /* I = -2: 20 */
(PID.TID 0000.0001)  OB_Js = /* Southern OB local indices */
(PID.TID 0000.0001)    23 @      -99                            /* I = -2: 20 */
(PID.TID 0000.0001)  OB_Ie = /* Eastern OB local indices */
(PID.TID 0000.0001)    26 @      -99                            /* J = -2: 23 */
(PID.TID 0000.0001)  OB_Iw = /* Western OB local indices */
(PID.TID 0000.0001)    26 @      -99                            /* J = -2: 23 */
(PID.TID 0000.0001) ======== Tile bi=   5 , bj=   2 ========
(PID.TID 0000.0001)  OB_Jn = /* Northern OB local indices */
(PID.TID 0000.0001)    23 @      -99                            /* I = -2: 20 */
(PID.TID 0000.0001)  OB_Js = /* Southern OB local indices */
(PID.TID 0000.0001)    23 @      -99                            /* I = -2: 20 */
(PID.TID 0000.0001)  OB_Ie = /* Eastern OB local indices */
(PID.TID 0000.0001)    26 @      -99                            /* J = -2: 23 */
(PID.TID 0000.0001)  OB_Iw = /* Western OB local indices */
(PID.TID 0000.0001)    26 @      -99                            /* J = -2: 23 */
(PID.TID 0000.0001) ======== Tile bi=   6 , bj=   2 ========
(PID.TID 0000.0001)  OB_Jn = /* Northern OB local indices */
(PID.TID 0000.0001)    23 @      -99                            /* I = -2: 20 */
(PID.TID 0000.0001)  OB_Js = /* Southern OB local indices */
(PID.TID 0000.0001)    23 @      -99                            /* I = -2: 20 */
(PID.TID 0000.0001)  OB_Ie = /* Eastern OB local indices */
(PID.TID 0000.0001)    26 @      -99                            /* J = -2: 23 */
(PID.TID 0000.0001)  OB_Iw = /* Western OB local indices */
(PID.TID 0000.0001)    26 @      -99                            /* J = -2: 23 */
(PID.TID 0000.0001) ======== Tile bi=   7 , bj=   2 ========
(PID.TID 0000.0001)  OB_Jn = /* Northern OB local indices */
(PID.TID 0000.0001)    23 @      -99                            /* I = -2: 20 */
(PID.TID 0000.0001)  OB_Js = /* Southern OB local indices */
(PID.TID 0000.0001)    23 @      -99                            /* I = -2: 20 */
(PID.TID 0000.0001)  OB_Ie = /* Eastern OB local indices */
(PID.TID 0000.0001)    26 @      -99                            /* J = -2: 23 */
(PID.TID 0000.0001)  OB_Iw = /* Western OB local indices */
(PID.TID 0000.0001)    26 @      -99                            /* J = -2: 23 */
(PID.TID 0000.0001) ======== Tile bi=   8 , bj=   2 ========
(PID.TID 0000.0001)  OB_Jn = /* Northern OB local indices */
(PID.TID 0000.0001)    23 @      -99                            /* I = -2: 20 */
(PID.TID 0000.0001)  OB_Js = /* Southern OB local indices */
(PID.TID 0000.0001)    23 @      -99                            /* I = -2: 20 */
(PID.TID 0000.0001)  OB_Ie = /* Eastern OB local indices */
(PID.TID 0000.0001)    26 @      -99                            /* J = -2: 23 */
(PID.TID 0000.0001)  OB_Iw = /* Western OB local indices */
(PID.TID 0000.0001)    26 @      -99                            /* J = -2: 23 */
(PID.TID 0000.0001) ======== Tile bi=   9 , bj=   2 ========
(PID.TID 0000.0001)  OB_Jn = /* Northern OB local indices */
(PID.TID 0000.0001)    23 @      -99                            /* I = -2: 20 */
(PID.TID 0000.0001)  OB_Js = /* Southern OB local indices */
(PID.TID 0000.0001)    23 @      -99                            /* I = -2: 20 */
(PID.TID 0000.0001)  OB_Ie = /* Eastern OB local indices */
(PID.TID 0000.0001)    26 @      -99                            /* J = -2: 23 */
(PID.TID 0000.0001)  OB_Iw = /* Western OB local indices */
(PID.TID 0000.0001)    26 @      -99                            /* J = -2: 23 */
(PID.TID 0000.0001) ======== Tile bi=  10 , bj=   2 ========
(PID.TID 0000.0001)  OB_Jn = /* Northern OB local indices */
(PID.TID 0000.0001)    23 @      -99                            /* I = -2: 20 */
(PID.TID 0000.0001)  OB_Js = /* Southern OB local indices */
(PID.TID 0000.0001)    23 @      -99                            /* I = -2: 20 */
(PID.TID 0000.0001)  OB_Ie = /* Eastern OB local indices */
(PID.TID 0000.0001)    26 @      -99                            /* J = -2: 23 */
(PID.TID 0000.0001)  OB_Iw = /* Western OB local indices */
(PID.TID 0000.0001)    26 @      -99                            /* J = -2: 23 */
(PID.TID 0000.0001) ======== Tile bi=  11 , bj=   2 ========
(PID.TID 0000.0001)  OB_Jn = /* Northern OB local indices */
(PID.TID 0000.0001)    23 @      -99                            /* I = -2: 20 */
(PID.TID 0000.0001)  OB_Js = /* Southern OB local indices */
(PID.TID 0000.0001)    23 @      -99                            /* I = -2: 20 */
(PID.TID 0000.0001)  OB_Ie = /* Eastern OB local indices */
(PID.TID 0000.0001)    26 @      -99                            /* J = -2: 23 */
(PID.TID 0000.0001)  OB_Iw = /* Western OB local indices */
(PID.TID 0000.0001)    26 @      -99                            /* J = -2: 23 */
(PID.TID 0000.0001) ======== Tile bi=  12 , bj=   2 ========
(PID.TID 0000.0001)  OB_Jn = /* Northern OB local indices */
(PID.TID 0000.0001)    23 @      -99                            /* I = -2: 20 */
(PID.TID 0000.0001)  OB_Js = /* Southern OB local indices */
(PID.TID 0000.0001)    23 @      -99                            /* I = -2: 20 */
(PID.TID 0000.0001)  OB_Ie = /* Eastern OB local indices */
(PID.TID 0000.0001)    26 @      -99                            /* J = -2: 23 */
(PID.TID 0000.0001)  OB_Iw = /* Western OB local indices */
(PID.TID 0000.0001)    26 @      -99                            /* J = -2: 23 */
(PID.TID 0000.0001) ======== Tile bi=  13 , bj=   2 ========
(PID.TID 0000.0001)  OB_Jn = /* Northern OB local indices */
(PID.TID 0000.0001)    23 @      -99                            /* I = -2: 20 */
(PID.TID 0000.0001)  OB_Js = /* Southern OB local indices */
(PID.TID 0000.0001)    23 @      -99                            /* I = -2: 20 */
(PID.TID 0000.0001)  OB_Ie = /* Eastern OB local indices */
(PID.TID 0000.0001)    26 @      -99                            /* J = -2: 23 */
(PID.TID 0000.0001)  OB_Iw = /* Western OB local indices */
(PID.TID 0000.0001)    26 @      -99                            /* J = -2: 23 */
(PID.TID 0000.0001) ======== Tile bi=  14 , bj=   2 ========
(PID.TID 0000.0001)  OB_Jn = /* Northern OB local indices */
(PID.TID 0000.0001)    23 @      -99                            /* I = -2: 20 */
(PID.TID 0000.0001)  OB_Js = /* Southern OB local indices */
(PID.TID 0000.0001)    23 @      -99                            /* I = -2: 20 */
(PID.TID 0000.0001)  OB_Ie = /* Eastern OB local indices */
(PID.TID 0000.0001)    26 @      -99                            /* J = -2: 23 */
(PID.TID 0000.0001)  OB_Iw = /* Western OB local indices */
(PID.TID 0000.0001)    26 @      -99                            /* J = -2: 23 */
(PID.TID 0000.0001) ======== Tile bi=  15 , bj=   2 ========
(PID.TID 0000.0001)  OB_Jn = /* Northern OB local indices */
(PID.TID 0000.0001)    23 @      -99                            /* I = -2: 20 */
(PID.TID 0000.0001)  OB_Js = /* Southern OB local indices */
(PID.TID 0000.0001)    23 @      -99                            /* I = -2: 20 */
(PID.TID 0000.0001)  OB_Ie = /* Eastern OB local indices */
(PID.TID 0000.0001)    26 @      -99                            /* J = -2: 23 */
(PID.TID 0000.0001)  OB_Iw = /* Western OB local indices */
(PID.TID 0000.0001)    26 @      -99                            /* J = -2: 23 */
(PID.TID 0000.0001) ======== Tile bi=  16 , bj=   2 ========
(PID.TID 0000.0001)  OB_Jn = /* Northern OB local indices */
(PID.TID 0000.0001)    23 @      -99                            /* I = -2: 20 */
(PID.TID 0000.0001)  OB_Js = /* Southern OB local indices */
(PID.TID 0000.0001)    23 @      -99                            /* I = -2: 20 */
(PID.TID 0000.0001)  OB_Ie = /* Eastern OB local indices */
(PID.TID 0000.0001)    26 @      -99                            /* J = -2: 23 */
(PID.TID 0000.0001)  OB_Iw = /* Western OB local indices */
(PID.TID 0000.0001)    26 @      -99                            /* J = -2: 23 */
(PID.TID 0000.0001) ======== Tile bi=   1 , bj=   3 ========
(PID.TID 0000.0001)  OB_Jn = /* Northern OB local indices */
(PID.TID 0000.0001)    23 @      -99                            /* I = -2: 20 */
(PID.TID 0000.0001)  OB_Js = /* Southern OB local indices */
(PID.TID 0000.0001)    23 @      -99                            /* I = -2: 20 */
(PID.TID 0000.0001)  OB_Ie = /* Eastern OB local indices */
(PID.TID 0000.0001)    26 @      -99                            /* J = -2: 23 */
(PID.TID 0000.0001)  OB_Iw = /* Western OB local indices */
(PID.TID 0000.0001)    26 @      -99                            /* J = -2: 23 */
(PID.TID 0000.0001) ======== Tile bi=   2 , bj=   3 ========
(PID.TID 0000.0001)  OB_Jn = /* Northern OB local indices */
(PID.TID 0000.0001)    23 @      -99                            /* I = -2: 20 */
(PID.TID 0000.0001)  OB_Js = /* Southern OB local indices */
(PID.TID 0000.0001)    23 @      -99                            /* I = -2: 20 */
(PID.TID 0000.0001)  OB_Ie = /* Eastern OB local indices */
(PID.TID 0000.0001)    26 @      -99                            /* J = -2: 23 */
(PID.TID 0000.0001)  OB_Iw = /* Western OB local indices */
(PID.TID 0000.0001)    26 @      -99                            /* J = -2: 23 */
(PID.TID 0000.0001) ======== Tile bi=   3 , bj=   3 ========
(PID.TID 0000.0001)  OB_Jn = /* Northern OB local indices */
(PID.TID 0000.0001)    23 @      -99                            /* I = -2: 20 */
(PID.TID 0000.0001)  OB_Js = /* Southern OB local indices */
(PID.TID 0000.0001)    23 @      -99                            /* I = -2: 20 */
(PID.TID 0000.0001)  OB_Ie = /* Eastern OB local indices */
(PID.TID 0000.0001)    26 @      -99                            /* J = -2: 23 */
(PID.TID 0000.0001)  OB_Iw = /* Western OB local indices */
(PID.TID 0000.0001)    26 @      -99                            /* J = -2: 23 */
(PID.TID 0000.0001) ======== Tile bi=   4 , bj=   3 ========
(PID.TID 0000.0001)  OB_Jn = /* Northern OB local indices */
(PID.TID 0000.0001)    23 @      -99                            /* I = -2: 20 */
(PID.TID 0000.0001)  OB_Js = /* Southern OB local indices */
(PID.TID 0000.0001)    23 @      -99                            /* I = -2: 20 */
(PID.TID 0000.0001)  OB_Ie = /* Eastern OB local indices */
(PID.TID 0000.0001)    26 @      -99                            /* J = -2: 23 */
(PID.TID 0000.0001)  OB_Iw = /* Western OB local indices */
(PID.TID 0000.0001)    26 @      -99                            /* J = -2: 23 */
(PID.TID 0000.0001) ======== Tile bi=   5 , bj=   3 ========
(PID.TID 0000.0001)  OB_Jn = /* Northern OB local indices */
(PID.TID 0000.0001)    23 @      -99                            /* I = -2: 20 */
(PID.TID 0000.0001)  OB_Js = /* Southern OB local indices */
(PID.TID 0000.0001)    23 @      -99                            /* I = -2: 20 */
(PID.TID 0000.0001)  OB_Ie = /* Eastern OB local indices */
(PID.TID 0000.0001)    26 @      -99                            /* J = -2: 23 */
(PID.TID 0000.0001)  OB_Iw = /* Western OB local indices */
(PID.TID 0000.0001)    26 @      -99                            /* J = -2: 23 */
(PID.TID 0000.0001) ======== Tile bi=   6 , bj=   3 ========
(PID.TID 0000.0001)  OB_Jn = /* Northern OB local indices */
(PID.TID 0000.0001)    23 @      -99                            /* I = -2: 20 */
(PID.TID 0000.0001)  OB_Js = /* Southern OB local indices */
(PID.TID 0000.0001)    23 @      -99                            /* I = -2: 20 */
(PID.TID 0000.0001)  OB_Ie = /* Eastern OB local indices */
(PID.TID 0000.0001)    26 @      -99                            /* J = -2: 23 */
(PID.TID 0000.0001)  OB_Iw = /* Western OB local indices */
(PID.TID 0000.0001)    26 @      -99                            /* J = -2: 23 */
(PID.TID 0000.0001) ======== Tile bi=   7 , bj=   3 ========
(PID.TID 0000.0001)  OB_Jn = /* Northern OB local indices */
(PID.TID 0000.0001)    23 @      -99                            /* I = -2: 20 */
(PID.TID 0000.0001)  OB_Js = /* Southern OB local indices */
(PID.TID 0000.0001)    23 @      -99                            /* I = -2: 20 */
(PID.TID 0000.0001)  OB_Ie = /* Eastern OB local indices */
(PID.TID 0000.0001)    26 @      -99                            /* J = -2: 23 */
(PID.TID 0000.0001)  OB_Iw = /* Western OB local indices */
(PID.TID 0000.0001)    26 @      -99                            /* J = -2: 23 */
(PID.TID 0000.0001) ======== Tile bi=   8 , bj=   3 ========
(PID.TID 0000.0001)  OB_Jn = /* Northern OB local indices */
(PID.TID 0000.0001)    23 @      -99                            /* I = -2: 20 */
(PID.TID 0000.0001)  OB_Js = /* Southern OB local indices */
(PID.TID 0000.0001)    23 @      -99                            /* I = -2: 20 */
(PID.TID 0000.0001)  OB_Ie = /* Eastern OB local indices */
(PID.TID 0000.0001)    26 @      -99                            /* J = -2: 23 */
(PID.TID 0000.0001)  OB_Iw = /* Western OB local indices */
(PID.TID 0000.0001)    26 @      -99                            /* J = -2: 23 */
(PID.TID 0000.0001) ======== Tile bi=   9 , bj=   3 ========
(PID.TID 0000.0001)  OB_Jn = /* Northern OB local indices */
(PID.TID 0000.0001)    23 @      -99                            /* I = -2: 20 */
(PID.TID 0000.0001)  OB_Js = /* Southern OB local indices */
(PID.TID 0000.0001)    23 @      -99                            /* I = -2: 20 */
(PID.TID 0000.0001)  OB_Ie = /* Eastern OB local indices */
(PID.TID 0000.0001)    26 @      -99                            /* J = -2: 23 */
(PID.TID 0000.0001)  OB_Iw = /* Western OB local indices */
(PID.TID 0000.0001)    26 @      -99                            /* J = -2: 23 */
(PID.TID 0000.0001) ======== Tile bi=  10 , bj=   3 ========
(PID.TID 0000.0001)  OB_Jn = /* Northern OB local indices */
(PID.TID 0000.0001)    23 @      -99                            /* I = -2: 20 */
(PID.TID 0000.0001)  OB_Js = /* Southern OB local indices */
(PID.TID 0000.0001)    23 @      -99                            /* I = -2: 20 */
(PID.TID 0000.0001)  OB_Ie = /* Eastern OB local indices */
(PID.TID 0000.0001)    26 @      -99                            /* J = -2: 23 */
(PID.TID 0000.0001)  OB_Iw = /* Western OB local indices */
(PID.TID 0000.0001)    26 @      -99                            /* J = -2: 23 */
(PID.TID 0000.0001) ======== Tile bi=  11 , bj=   3 ========
(PID.TID 0000.0001)  OB_Jn = /* Northern OB local indices */
(PID.TID 0000.0001)    23 @      -99                            /* I = -2: 20 */
(PID.TID 0000.0001)  OB_Js = /* Southern OB local indices */
(PID.TID 0000.0001)    23 @      -99                            /* I = -2: 20 */
(PID.TID 0000.0001)  OB_Ie = /* Eastern OB local indices */
(PID.TID 0000.0001)    26 @      -99                            /* J = -2: 23 */
(PID.TID 0000.0001)  OB_Iw = /* Western OB local indices */
(PID.TID 0000.0001)    26 @      -99                            /* J = -2: 23 */
(PID.TID 0000.0001) ======== Tile bi=  12 , bj=   3 ========
(PID.TID 0000.0001)  OB_Jn = /* Northern OB local indices */
(PID.TID 0000.0001)    23 @      -99                            /* I = -2: 20 */
(PID.TID 0000.0001)  OB_Js = /* Southern OB local indices */
(PID.TID 0000.0001)    23 @      -99                            /* I = -2: 20 */
(PID.TID 0000.0001)  OB_Ie = /* Eastern OB local indices */
(PID.TID 0000.0001)    26 @      -99                            /* J = -2: 23 */
(PID.TID 0000.0001)  OB_Iw = /* Western OB local indices */
(PID.TID 0000.0001)    26 @      -99                            /* J = -2: 23 */
(PID.TID 0000.0001) ======== Tile bi=  13 , bj=   3 ========
(PID.TID 0000.0001)  OB_Jn = /* Northern OB local indices */
(PID.TID 0000.0001)    23 @      -99                            /* I = -2: 20 */
(PID.TID 0000.0001)  OB_Js = /* Southern OB local indices */
(PID.TID 0000.0001)    23 @      -99                            /* I = -2: 20 */
(PID.TID 0000.0001)  OB_Ie = /* Eastern OB local indices */
(PID.TID 0000.0001)    26 @      -99                            /* J = -2: 23 */
(PID.TID 0000.0001)  OB_Iw = /* Western OB local indices */
(PID.TID 0000.0001)    26 @      -99                            /* J = -2: 23 */
(PID.TID 0000.0001) ======== Tile bi=  14 , bj=   3 ========
(PID.TID 0000.0001)  OB_Jn = /* Northern OB local indices */
(PID.TID 0000.0001)    23 @      -99                            /* I = -2: 20 */
(PID.TID 0000.0001)  OB_Js = /* Southern OB local indices */
(PID.TID 0000.0001)    23 @      -99                            /* I = -2: 20 */
(PID.TID 0000.0001)  OB_Ie = /* Eastern OB local indices */
(PID.TID 0000.0001)    26 @      -99                            /* J = -2: 23 */
(PID.TID 0000.0001)  OB_Iw = /* Western OB local indices */
(PID.TID 0000.0001)    26 @      -99                            /* J = -2: 23 */
(PID.TID 0000.0001) ======== Tile bi=  15 , bj=   3 ========
(PID.TID 0000.0001)  OB_Jn = /* Northern OB local indices */
(PID.TID 0000.0001)    23 @      -99                            /* I = -2: 20 */
(PID.TID 0000.0001)  OB_Js = /* Southern OB local indices */
(PID.TID 0000.0001)    23 @      -99                            /* I = -2: 20 */
(PID.TID 0000.0001)  OB_Ie = /* Eastern OB local indices */
(PID.TID 0000.0001)    26 @      -99                            /* J = -2: 23 */
(PID.TID 0000.0001)  OB_Iw = /* Western OB local indices */
(PID.TID 0000.0001)    26 @      -99                            /* J = -2: 23 */
(PID.TID 0000.0001) ======== Tile bi=  16 , bj=   3 ========
(PID.TID 0000.0001)  OB_Jn = /* Northern OB local indices */
(PID.TID 0000.0001)    23 @      -99                            /* I = -2: 20 */
(PID.TID 0000.0001)  OB_Js = /* Southern OB local indices */
(PID.TID 0000.0001)    23 @      -99                            /* I = -2: 20 */
(PID.TID 0000.0001)  OB_Ie = /* Eastern OB local indices */
(PID.TID 0000.0001)    26 @      -99                            /* J = -2: 23 */
(PID.TID 0000.0001)  OB_Iw = /* Western OB local indices */
(PID.TID 0000.0001)    26 @      -99                            /* J = -2: 23 */
(PID.TID 0000.0001) ======== Tile bi=   1 , bj=   4 ========
(PID.TID 0000.0001)  OB_Jn = /* Northern OB local indices */
(PID.TID 0000.0001)    23 @      -99                            /* I = -2: 20 */
(PID.TID 0000.0001)  OB_Js = /* Southern OB local indices */
(PID.TID 0000.0001)    23 @      -99                            /* I = -2: 20 */
(PID.TID 0000.0001)  OB_Ie = /* Eastern OB local indices */
(PID.TID 0000.0001)    26 @      -99                            /* J = -2: 23 */
(PID.TID 0000.0001)  OB_Iw = /* Western OB local indices */
(PID.TID 0000.0001)    26 @      -99                            /* J = -2: 23 */
(PID.TID 0000.0001) ======== Tile bi=   2 , bj=   4 ========
(PID.TID 0000.0001)  OB_Jn = /* Northern OB local indices */
(PID.TID 0000.0001)    23 @      -99                            /* I = -2: 20 */
(PID.TID 0000.0001)  OB_Js = /* Southern OB local indices */
(PID.TID 0000.0001)    23 @      -99                            /* I = -2: 20 */
(PID.TID 0000.0001)  OB_Ie = /* Eastern OB local indices */
(PID.TID 0000.0001)    26 @      -99                            /* J = -2: 23 */
(PID.TID 0000.0001)  OB_Iw = /* Western OB local indices */
(PID.TID 0000.0001)    26 @      -99                            /* J = -2: 23 */
(PID.TID 0000.0001) ======== Tile bi=   3 , bj=   4 ========
(PID.TID 0000.0001)  OB_Jn = /* Northern OB local indices */
(PID.TID 0000.0001)    23 @      -99                            /* I = -2: 20 */
(PID.TID 0000.0001)  OB_Js = /* Southern OB local indices */
(PID.TID 0000.0001)    23 @      -99                            /* I = -2: 20 */
(PID.TID 0000.0001)  OB_Ie = /* Eastern OB local indices */
(PID.TID 0000.0001)    26 @      -99                            /* J = -2: 23 */
(PID.TID 0000.0001)  OB_Iw = /* Western OB local indices */
(PID.TID 0000.0001)    26 @      -99                            /* J = -2: 23 */
(PID.TID 0000.0001) ======== Tile bi=   4 , bj=   4 ========
(PID.TID 0000.0001)  OB_Jn = /* Northern OB local indices */
(PID.TID 0000.0001)    23 @      -99                            /* I = -2: 20 */
(PID.TID 0000.0001)  OB_Js = /* Southern OB local indices */
(PID.TID 0000.0001)    23 @      -99                            /* I = -2: 20 */
(PID.TID 0000.0001)  OB_Ie = /* Eastern OB local indices */
(PID.TID 0000.0001)    26 @      -99                            /* J = -2: 23 */
(PID.TID 0000.0001)  OB_Iw = /* Western OB local indices */
(PID.TID 0000.0001)    26 @      -99                            /* J = -2: 23 */
(PID.TID 0000.0001) ======== Tile bi=   5 , bj=   4 ========
(PID.TID 0000.0001)  OB_Jn = /* Northern OB local indices */
(PID.TID 0000.0001)    23 @      -99                            /* I = -2: 20 */
(PID.TID 0000.0001)  OB_Js = /* Southern OB local indices */
(PID.TID 0000.0001)    23 @      -99                            /* I = -2: 20 */
(PID.TID 0000.0001)  OB_Ie = /* Eastern OB local indices */
(PID.TID 0000.0001)    26 @      -99                            /* J = -2: 23 */
(PID.TID 0000.0001)  OB_Iw = /* Western OB local indices */
(PID.TID 0000.0001)    26 @      -99                            /* J = -2: 23 */
(PID.TID 0000.0001) ======== Tile bi=   6 , bj=   4 ========
(PID.TID 0000.0001)  OB_Jn = /* Northern OB local indices */
(PID.TID 0000.0001)    23 @      -99                            /* I = -2: 20 */
(PID.TID 0000.0001)  OB_Js = /* Southern OB local indices */
(PID.TID 0000.0001)    23 @      -99                            /* I = -2: 20 */
(PID.TID 0000.0001)  OB_Ie = /* Eastern OB local indices */
(PID.TID 0000.0001)    26 @      -99                            /* J = -2: 23 */
(PID.TID 0000.0001)  OB_Iw = /* Western OB local indices */
(PID.TID 0000.0001)    26 @      -99                            /* J = -2: 23 */
(PID.TID 0000.0001) ======== Tile bi=   7 , bj=   4 ========
(PID.TID 0000.0001)  OB_Jn = /* Northern OB local indices */
(PID.TID 0000.0001)    23 @      -99                            /* I = -2: 20 */
(PID.TID 0000.0001)  OB_Js = /* Southern OB local indices */
(PID.TID 0000.0001)    23 @      -99                            /* I = -2: 20 */
(PID.TID 0000.0001)  OB_Ie = /* Eastern OB local indices */
(PID.TID 0000.0001)    26 @      -99                            /* J = -2: 23 */
(PID.TID 0000.0001)  OB_Iw = /* Western OB local indices */
(PID.TID 0000.0001)    26 @      -99                            /* J = -2: 23 */
(PID.TID 0000.0001) ======== Tile bi=   8 , bj=   4 ========
(PID.TID 0000.0001)  OB_Jn = /* Northern OB local indices */
(PID.TID 0000.0001)    23 @      -99                            /* I = -2: 20 */
(PID.TID 0000.0001)  OB_Js = /* Southern OB local indices */
(PID.TID 0000.0001)    23 @      -99                            /* I = -2: 20 */
(PID.TID 0000.0001)  OB_Ie = /* Eastern OB local indices */
(PID.TID 0000.0001)    26 @      -99                            /* J = -2: 23 */
(PID.TID 0000.0001)  OB_Iw = /* Western OB local indices */
(PID.TID 0000.0001)    26 @      -99                            /* J = -2: 23 */
(PID.TID 0000.0001) ======== Tile bi=   9 , bj=   4 ========
(PID.TID 0000.0001)  OB_Jn = /* Northern OB local indices */
(PID.TID 0000.0001)    23 @      -99                            /* I = -2: 20 */
(PID.TID 0000.0001)  OB_Js = /* Southern OB local indices */
(PID.TID 0000.0001)    23 @      -99                            /* I = -2: 20 */
(PID.TID 0000.0001)  OB_Ie = /* Eastern OB local indices */
(PID.TID 0000.0001)    26 @      -99                            /* J = -2: 23 */
(PID.TID 0000.0001)  OB_Iw = /* Western OB local indices */
(PID.TID 0000.0001)    26 @      -99                            /* J = -2: 23 */
(PID.TID 0000.0001) ======== Tile bi=  10 , bj=   4 ========
(PID.TID 0000.0001)  OB_Jn = /* Northern OB local indices */
(PID.TID 0000.0001)    23 @      -99                            /* I = -2: 20 */
(PID.TID 0000.0001)  OB_Js = /* Southern OB local indices */
(PID.TID 0000.0001)    23 @      -99                            /* I = -2: 20 */
(PID.TID 0000.0001)  OB_Ie = /* Eastern OB local indices */
(PID.TID 0000.0001)    26 @      -99                            /* J = -2: 23 */
(PID.TID 0000.0001)  OB_Iw = /* Western OB local indices */
(PID.TID 0000.0001)    26 @      -99                            /* J = -2: 23 */
(PID.TID 0000.0001) ======== Tile bi=  11 , bj=   4 ========
(PID.TID 0000.0001)  OB_Jn = /* Northern OB local indices */
(PID.TID 0000.0001)    23 @      -99                            /* I = -2: 20 */
(PID.TID 0000.0001)  OB_Js = /* Southern OB local indices */
(PID.TID 0000.0001)    23 @      -99                            /* I = -2: 20 */
(PID.TID 0000.0001)  OB_Ie = /* Eastern OB local indices */
(PID.TID 0000.0001)    26 @      -99                            /* J = -2: 23 */
(PID.TID 0000.0001)  OB_Iw = /* Western OB local indices */
(PID.TID 0000.0001)    26 @      -99                            /* J = -2: 23 */
(PID.TID 0000.0001) ======== Tile bi=  12 , bj=   4 ========
(PID.TID 0000.0001)  OB_Jn = /* Northern OB local indices */
(PID.TID 0000.0001)    23 @      -99                            /* I = -2: 20 */
(PID.TID 0000.0001)  OB_Js = /* Southern OB local indices */
(PID.TID 0000.0001)    23 @      -99                            /* I = -2: 20 */
(PID.TID 0000.0001)  OB_Ie = /* Eastern OB local indices */
(PID.TID 0000.0001)    26 @      -99                            /* J = -2: 23 */
(PID.TID 0000.0001)  OB_Iw = /* Western OB local indices */
(PID.TID 0000.0001)    26 @      -99                            /* J = -2: 23 */
(PID.TID 0000.0001) ======== Tile bi=  13 , bj=   4 ========
(PID.TID 0000.0001)  OB_Jn = /* Northern OB local indices */
(PID.TID 0000.0001)    23 @      -99                            /* I = -2: 20 */
(PID.TID 0000.0001)  OB_Js = /* Southern OB local indices */
(PID.TID 0000.0001)    23 @      -99                            /* I = -2: 20 */
(PID.TID 0000.0001)  OB_Ie = /* Eastern OB local indices */
(PID.TID 0000.0001)    26 @      -99                            /* J = -2: 23 */
(PID.TID 0000.0001)  OB_Iw = /* Western OB local indices */
(PID.TID 0000.0001)    26 @      -99                            /* J = -2: 23 */
(PID.TID 0000.0001) ======== Tile bi=  14 , bj=   4 ========
(PID.TID 0000.0001)  OB_Jn = /* Northern OB local indices */
(PID.TID 0000.0001)    23 @      -99                            /* I = -2: 20 */
(PID.TID 0000.0001)  OB_Js = /* Southern OB local indices */
(PID.TID 0000.0001)    23 @      -99                            /* I = -2: 20 */
(PID.TID 0000.0001)  OB_Ie = /* Eastern OB local indices */
(PID.TID 0000.0001)    26 @      -99                            /* J = -2: 23 */
(PID.TID 0000.0001)  OB_Iw = /* Western OB local indices */
(PID.TID 0000.0001)    26 @      -99                            /* J = -2: 23 */
(PID.TID 0000.0001) ======== Tile bi=  15 , bj=   4 ========
(PID.TID 0000.0001)  OB_Jn = /* Northern OB local indices */
(PID.TID 0000.0001)    23 @      -99                            /* I = -2: 20 */
(PID.TID 0000.0001)  OB_Js = /* Southern OB local indices */
(PID.TID 0000.0001)    23 @      -99                            /* I = -2: 20 */
(PID.TID 0000.0001)  OB_Ie = /* Eastern OB local indices */
(PID.TID 0000.0001)    26 @      -99                            /* J = -2: 23 */
(PID.TID 0000.0001)  OB_Iw = /* Western OB local indices */
(PID.TID 0000.0001)    26 @      -99                            /* J = -2: 23 */
(PID.TID 0000.0001) ======== Tile bi=  16 , bj=   4 ========
(PID.TID 0000.0001)  OB_Jn = /* Northern OB local indices */
(PID.TID 0000.0001)    23 @      -99                            /* I = -2: 20 */
(PID.TID 0000.0001)  OB_Js = /* Southern OB local indices */
(PID.TID 0000.0001)    23 @      -99                            /* I = -2: 20 */
(PID.TID 0000.0001)  OB_Ie = /* Eastern OB local indices */
(PID.TID 0000.0001)    26 @      -99                            /* J = -2: 23 */
(PID.TID 0000.0001)  OB_Iw = /* Western OB local indices */
(PID.TID 0000.0001)    26 @      -99                            /* J = -2: 23 */
(PID.TID 0000.0001) ======== Tile bi=   1 , bj=   5 ========
(PID.TID 0000.0001)  OB_Jn = /* Northern OB local indices */
(PID.TID 0000.0001)    23 @      -99                            /* I = -2: 20 */
(PID.TID 0000.0001)  OB_Js = /* Southern OB local indices */
(PID.TID 0000.0001)    23 @      -99                            /* I = -2: 20 */
(PID.TID 0000.0001)  OB_Ie = /* Eastern OB local indices */
(PID.TID 0000.0001)    26 @      -99                            /* J = -2: 23 */
(PID.TID 0000.0001)  OB_Iw = /* Western OB local indices */
(PID.TID 0000.0001)    26 @      -99                            /* J = -2: 23 */
(PID.TID 0000.0001) ======== Tile bi=   2 , bj=   5 ========
(PID.TID 0000.0001)  OB_Jn = /* Northern OB local indices */
(PID.TID 0000.0001)    23 @      -99                            /* I = -2: 20 */
(PID.TID 0000.0001)  OB_Js = /* Southern OB local indices */
(PID.TID 0000.0001)    23 @      -99                            /* I = -2: 20 */
(PID.TID 0000.0001)  OB_Ie = /* Eastern OB local indices */
(PID.TID 0000.0001)    26 @      -99                            /* J = -2: 23 */
(PID.TID 0000.0001)  OB_Iw = /* Western OB local indices */
(PID.TID 0000.0001)    26 @      -99                            /* J = -2: 23 */
(PID.TID 0000.0001) ======== Tile bi=   3 , bj=   5 ========
(PID.TID 0000.0001)  OB_Jn = /* Northern OB local indices */
(PID.TID 0000.0001)    23 @      -99                            /* I = -2: 20 */
(PID.TID 0000.0001)  OB_Js = /* Southern OB local indices */
(PID.TID 0000.0001)    23 @      -99                            /* I = -2: 20 */
(PID.TID 0000.0001)  OB_Ie = /* Eastern OB local indices */
(PID.TID 0000.0001)    26 @      -99                            /* J = -2: 23 */
(PID.TID 0000.0001)  OB_Iw = /* Western OB local indices */
(PID.TID 0000.0001)    26 @      -99                            /* J = -2: 23 */
(PID.TID 0000.0001) ======== Tile bi=   4 , bj=   5 ========
(PID.TID 0000.0001)  OB_Jn = /* Northern OB local indices */
(PID.TID 0000.0001)    23 @      -99                            /* I = -2: 20 */
(PID.TID 0000.0001)  OB_Js = /* Southern OB local indices */
(PID.TID 0000.0001)    23 @      -99                            /* I = -2: 20 */
(PID.TID 0000.0001)  OB_Ie = /* Eastern OB local indices */
(PID.TID 0000.0001)    26 @      -99                            /* J = -2: 23 */
(PID.TID 0000.0001)  OB_Iw = /* Western OB local indices */
(PID.TID 0000.0001)    26 @      -99                            /* J = -2: 23 */
(PID.TID 0000.0001) ======== Tile bi=   5 , bj=   5 ========
(PID.TID 0000.0001)  OB_Jn = /* Northern OB local indices */
(PID.TID 0000.0001)    23 @      -99                            /* I = -2: 20 */
(PID.TID 0000.0001)  OB_Js = /* Southern OB local indices */
(PID.TID 0000.0001)    23 @      -99                            /* I = -2: 20 */
(PID.TID 0000.0001)  OB_Ie = /* Eastern OB local indices */
(PID.TID 0000.0001)    26 @      -99                            /* J = -2: 23 */
(PID.TID 0000.0001)  OB_Iw = /* Western OB local indices */
(PID.TID 0000.0001)    26 @      -99                            /* J = -2: 23 */
(PID.TID 0000.0001) ======== Tile bi=   6 , bj=   5 ========
(PID.TID 0000.0001)  OB_Jn = /* Northern OB local indices */
(PID.TID 0000.0001)    23 @      -99                            /* I = -2: 20 */
(PID.TID 0000.0001)  OB_Js = /* Southern OB local indices */
(PID.TID 0000.0001)    23 @      -99                            /* I = -2: 20 */
(PID.TID 0000.0001)  OB_Ie = /* Eastern OB local indices */
(PID.TID 0000.0001)    26 @      -99                            /* J = -2: 23 */
(PID.TID 0000.0001)  OB_Iw = /* Western OB local indices */
(PID.TID 0000.0001)    26 @      -99                            /* J = -2: 23 */
(PID.TID 0000.0001) ======== Tile bi=   7 , bj=   5 ========
(PID.TID 0000.0001)  OB_Jn = /* Northern OB local indices */
(PID.TID 0000.0001)    23 @      -99                            /* I = -2: 20 */
(PID.TID 0000.0001)  OB_Js = /* Southern OB local indices */
(PID.TID 0000.0001)    23 @      -99                            /* I = -2: 20 */
(PID.TID 0000.0001)  OB_Ie = /* Eastern OB local indices */
(PID.TID 0000.0001)    26 @      -99                            /* J = -2: 23 */
(PID.TID 0000.0001)  OB_Iw = /* Western OB local indices */
(PID.TID 0000.0001)    26 @      -99                            /* J = -2: 23 */
(PID.TID 0000.0001) ======== Tile bi=   8 , bj=   5 ========
(PID.TID 0000.0001)  OB_Jn = /* Northern OB local indices */
(PID.TID 0000.0001)    23 @      -99                            /* I = -2: 20 */
(PID.TID 0000.0001)  OB_Js = /* Southern OB local indices */
(PID.TID 0000.0001)    23 @      -99                            /* I = -2: 20 */
(PID.TID 0000.0001)  OB_Ie = /* Eastern OB local indices */
(PID.TID 0000.0001)    26 @      -99                            /* J = -2: 23 */
(PID.TID 0000.0001)  OB_Iw = /* Western OB local indices */
(PID.TID 0000.0001)    26 @      -99                            /* J = -2: 23 */
(PID.TID 0000.0001) ======== Tile bi=   9 , bj=   5 ========
(PID.TID 0000.0001)  OB_Jn = /* Northern OB local indices */
(PID.TID 0000.0001)    23 @      -99                            /* I = -2: 20 */
(PID.TID 0000.0001)  OB_Js = /* Southern OB local indices */
(PID.TID 0000.0001)    23 @      -99                            /* I = -2: 20 */
(PID.TID 0000.0001)  OB_Ie = /* Eastern OB local indices */
(PID.TID 0000.0001)    26 @      -99                            /* J = -2: 23 */
(PID.TID 0000.0001)  OB_Iw = /* Western OB local indices */
(PID.TID 0000.0001)    26 @      -99                            /* J = -2: 23 */
(PID.TID 0000.0001) ======== Tile bi=  10 , bj=   5 ========
(PID.TID 0000.0001)  OB_Jn = /* Northern OB local indices */
(PID.TID 0000.0001)    23 @      -99                            /* I = -2: 20 */
(PID.TID 0000.0001)  OB_Js = /* Southern OB local indices */
(PID.TID 0000.0001)    23 @      -99                            /* I = -2: 20 */
(PID.TID 0000.0001)  OB_Ie = /* Eastern OB local indices */
(PID.TID 0000.0001)    26 @      -99                            /* J = -2: 23 */
(PID.TID 0000.0001)  OB_Iw = /* Western OB local indices */
(PID.TID 0000.0001)    26 @      -99                            /* J = -2: 23 */
(PID.TID 0000.0001) ======== Tile bi=  11 , bj=   5 ========
(PID.TID 0000.0001)  OB_Jn = /* Northern OB local indices */
(PID.TID 0000.0001)    23 @      -99                            /* I = -2: 20 */
(PID.TID 0000.0001)  OB_Js = /* Southern OB local indices */
(PID.TID 0000.0001)    23 @      -99                            /* I = -2: 20 */
(PID.TID 0000.0001)  OB_Ie = /* Eastern OB local indices */
(PID.TID 0000.0001)    26 @      -99                            /* J = -2: 23 */
(PID.TID 0000.0001)  OB_Iw = /* Western OB local indices */
(PID.TID 0000.0001)    26 @      -99                            /* J = -2: 23 */
(PID.TID 0000.0001) ======== Tile bi=  12 , bj=   5 ========
(PID.TID 0000.0001)  OB_Jn = /* Northern OB local indices */
(PID.TID 0000.0001)    23 @      -99                            /* I = -2: 20 */
(PID.TID 0000.0001)  OB_Js = /* Southern OB local indices */
(PID.TID 0000.0001)    23 @      -99                            /* I = -2: 20 */
(PID.TID 0000.0001)  OB_Ie = /* Eastern OB local indices */
(PID.TID 0000.0001)    26 @      -99                            /* J = -2: 23 */
(PID.TID 0000.0001)  OB_Iw = /* Western OB local indices */
(PID.TID 0000.0001)    26 @      -99                            /* J = -2: 23 */
(PID.TID 0000.0001) ======== Tile bi=  13 , bj=   5 ========
(PID.TID 0000.0001)  OB_Jn = /* Northern OB local indices */
(PID.TID 0000.0001)    23 @      -99                            /* I = -2: 20 */
(PID.TID 0000.0001)  OB_Js = /* Southern OB local indices */
(PID.TID 0000.0001)    23 @      -99                            /* I = -2: 20 */
(PID.TID 0000.0001)  OB_Ie = /* Eastern OB local indices */
(PID.TID 0000.0001)    26 @      -99                            /* J = -2: 23 */
(PID.TID 0000.0001)  OB_Iw = /* Western OB local indices */
(PID.TID 0000.0001)    26 @      -99                            /* J = -2: 23 */
(PID.TID 0000.0001) ======== Tile bi=  14 , bj=   5 ========
(PID.TID 0000.0001)  OB_Jn = /* Northern OB local indices */
(PID.TID 0000.0001)    23 @      -99                            /* I = -2: 20 */
(PID.TID 0000.0001)  OB_Js = /* Southern OB local indices */
(PID.TID 0000.0001)    23 @      -99                            /* I = -2: 20 */
(PID.TID 0000.0001)  OB_Ie = /* Eastern OB local indices */
(PID.TID 0000.0001)    26 @      -99                            /* J = -2: 23 */
(PID.TID 0000.0001)  OB_Iw = /* Western OB local indices */
(PID.TID 0000.0001)    26 @      -99                            /* J = -2: 23 */
(PID.TID 0000.0001) ======== Tile bi=  15 , bj=   5 ========
(PID.TID 0000.0001)  OB_Jn = /* Northern OB local indices */
(PID.TID 0000.0001)    23 @      -99                            /* I = -2: 20 */
(PID.TID 0000.0001)  OB_Js = /* Southern OB local indices */
(PID.TID 0000.0001)    23 @      -99                            /* I = -2: 20 */
(PID.TID 0000.0001)  OB_Ie = /* Eastern OB local indices */
(PID.TID 0000.0001)    26 @      -99                            /* J = -2: 23 */
(PID.TID 0000.0001)  OB_Iw = /* Western OB local indices */
(PID.TID 0000.0001)    26 @      -99                            /* J = -2: 23 */
(PID.TID 0000.0001) ======== Tile bi=  16 , bj=   5 ========
(PID.TID 0000.0001)  OB_Jn = /* Northern OB local indices */
(PID.TID 0000.0001)    23 @      -99                            /* I = -2: 20 */
(PID.TID 0000.0001)  OB_Js = /* Southern OB local indices */
(PID.TID 0000.0001)    23 @      -99                            /* I = -2: 20 */
(PID.TID 0000.0001)  OB_Ie = /* Eastern OB local indices */
(PID.TID 0000.0001)    26 @      -99                            /* J = -2: 23 */
(PID.TID 0000.0001)  OB_Iw = /* Western OB local indices */
(PID.TID 0000.0001)    26 @      -99                            /* J = -2: 23 */
(PID.TID 0000.0001) ======== Tile bi=   1 , bj=   6 ========
(PID.TID 0000.0001)  OB_Jn = /* Northern OB local indices */
(PID.TID 0000.0001)    23 @      -99                            /* I = -2: 20 */
(PID.TID 0000.0001)  OB_Js = /* Southern OB local indices */
(PID.TID 0000.0001)    23 @      -99                            /* I = -2: 20 */
(PID.TID 0000.0001)  OB_Ie = /* Eastern OB local indices */
(PID.TID 0000.0001)    26 @      -99                            /* J = -2: 23 */
(PID.TID 0000.0001)  OB_Iw = /* Western OB local indices */
(PID.TID 0000.0001)    26 @      -99                            /* J = -2: 23 */
(PID.TID 0000.0001) ======== Tile bi=   2 , bj=   6 ========
(PID.TID 0000.0001)  OB_Jn = /* Northern OB local indices */
(PID.TID 0000.0001)    23 @      -99                            /* I = -2: 20 */
(PID.TID 0000.0001)  OB_Js = /* Southern OB local indices */
(PID.TID 0000.0001)    23 @      -99                            /* I = -2: 20 */
(PID.TID 0000.0001)  OB_Ie = /* Eastern OB local indices */
(PID.TID 0000.0001)    26 @      -99                            /* J = -2: 23 */
(PID.TID 0000.0001)  OB_Iw = /* Western OB local indices */
(PID.TID 0000.0001)    26 @      -99                            /* J = -2: 23 */
(PID.TID 0000.0001) ======== Tile bi=   3 , bj=   6 ========
(PID.TID 0000.0001)  OB_Jn = /* Northern OB local indices */
(PID.TID 0000.0001)    23 @      -99                            /* I = -2: 20 */
(PID.TID 0000.0001)  OB_Js = /* Southern OB local indices */
(PID.TID 0000.0001)    23 @      -99                            /* I = -2: 20 */
(PID.TID 0000.0001)  OB_Ie = /* Eastern OB local indices */
(PID.TID 0000.0001)    26 @      -99                            /* J = -2: 23 */
(PID.TID 0000.0001)  OB_Iw = /* Western OB local indices */
(PID.TID 0000.0001)    26 @      -99                            /* J = -2: 23 */
(PID.TID 0000.0001) ======== Tile bi=   4 , bj=   6 ========
(PID.TID 0000.0001)  OB_Jn = /* Northern OB local indices */
(PID.TID 0000.0001)    23 @      -99                            /* I = -2: 20 */
(PID.TID 0000.0001)  OB_Js = /* Southern OB local indices */
(PID.TID 0000.0001)    23 @      -99                            /* I = -2: 20 */
(PID.TID 0000.0001)  OB_Ie = /* Eastern OB local indices */
(PID.TID 0000.0001)    26 @      -99                            /* J = -2: 23 */
(PID.TID 0000.0001)  OB_Iw = /* Western OB local indices */
(PID.TID 0000.0001)    26 @      -99                            /* J = -2: 23 */
(PID.TID 0000.0001) ======== Tile bi=   5 , bj=   6 ========
(PID.TID 0000.0001)  OB_Jn = /* Northern OB local indices */
(PID.TID 0000.0001)    23 @      -99                            /* I = -2: 20 */
(PID.TID 0000.0001)  OB_Js = /* Southern OB local indices */
(PID.TID 0000.0001)    23 @      -99                            /* I = -2: 20 */
(PID.TID 0000.0001)  OB_Ie = /* Eastern OB local indices */
(PID.TID 0000.0001)    26 @      -99                            /* J = -2: 23 */
(PID.TID 0000.0001)  OB_Iw = /* Western OB local indices */
(PID.TID 0000.0001)    26 @      -99                            /* J = -2: 23 */
(PID.TID 0000.0001) ======== Tile bi=   6 , bj=   6 ========
(PID.TID 0000.0001)  OB_Jn = /* Northern OB local indices */
(PID.TID 0000.0001)    23 @      -99                            /* I = -2: 20 */
(PID.TID 0000.0001)  OB_Js = /* Southern OB local indices */
(PID.TID 0000.0001)    23 @      -99                            /* I = -2: 20 */
(PID.TID 0000.0001)  OB_Ie = /* Eastern OB local indices */
(PID.TID 0000.0001)    26 @      -99                            /* J = -2: 23 */
(PID.TID 0000.0001)  OB_Iw = /* Western OB local indices */
(PID.TID 0000.0001)    26 @      -99                            /* J = -2: 23 */
(PID.TID 0000.0001) ======== Tile bi=   7 , bj=   6 ========
(PID.TID 0000.0001)  OB_Jn = /* Northern OB local indices */
(PID.TID 0000.0001)    23 @      -99                            /* I = -2: 20 */
(PID.TID 0000.0001)  OB_Js = /* Southern OB local indices */
(PID.TID 0000.0001)    23 @      -99                            /* I = -2: 20 */
(PID.TID 0000.0001)  OB_Ie = /* Eastern OB local indices */
(PID.TID 0000.0001)    26 @      -99                            /* J = -2: 23 */
(PID.TID 0000.0001)  OB_Iw = /* Western OB local indices */
(PID.TID 0000.0001)    26 @      -99                            /* J = -2: 23 */
(PID.TID 0000.0001) ======== Tile bi=   8 , bj=   6 ========
(PID.TID 0000.0001)  OB_Jn = /* Northern OB local indices */
(PID.TID 0000.0001)    23 @      -99                            /* I = -2: 20 */
(PID.TID 0000.0001)  OB_Js = /* Southern OB local indices */
(PID.TID 0000.0001)    23 @      -99                            /* I = -2: 20 */
(PID.TID 0000.0001)  OB_Ie = /* Eastern OB local indices */
(PID.TID 0000.0001)    26 @      -99                            /* J = -2: 23 */
(PID.TID 0000.0001)  OB_Iw = /* Western OB local indices */
(PID.TID 0000.0001)    26 @      -99                            /* J = -2: 23 */
(PID.TID 0000.0001) ======== Tile bi=   9 , bj=   6 ========
(PID.TID 0000.0001)  OB_Jn = /* Northern OB local indices */
(PID.TID 0000.0001)    23 @      -99                            /* I = -2: 20 */
(PID.TID 0000.0001)  OB_Js = /* Southern OB local indices */
(PID.TID 0000.0001)    23 @      -99                            /* I = -2: 20 */
(PID.TID 0000.0001)  OB_Ie = /* Eastern OB local indices */
(PID.TID 0000.0001)    26 @      -99                            /* J = -2: 23 */
(PID.TID 0000.0001)  OB_Iw = /* Western OB local indices */
(PID.TID 0000.0001)    26 @      -99                            /* J = -2: 23 */
(PID.TID 0000.0001) ======== Tile bi=  10 , bj=   6 ========
(PID.TID 0000.0001)  OB_Jn = /* Northern OB local indices */
(PID.TID 0000.0001)    23 @      -99                            /* I = -2: 20 */
(PID.TID 0000.0001)  OB_Js = /* Southern OB local indices */
(PID.TID 0000.0001)    23 @      -99                            /* I = -2: 20 */
(PID.TID 0000.0001)  OB_Ie = /* Eastern OB local indices */
(PID.TID 0000.0001)    26 @      -99                            /* J = -2: 23 */
(PID.TID 0000.0001)  OB_Iw = /* Western OB local indices */
(PID.TID 0000.0001)    26 @      -99                            /* J = -2: 23 */
(PID.TID 0000.0001) ======== Tile bi=  11 , bj=   6 ========
(PID.TID 0000.0001)  OB_Jn = /* Northern OB local indices */
(PID.TID 0000.0001)    23 @      -99                            /* I = -2: 20 */
(PID.TID 0000.0001)  OB_Js = /* Southern OB local indices */
(PID.TID 0000.0001)    23 @      -99                            /* I = -2: 20 */
(PID.TID 0000.0001)  OB_Ie = /* Eastern OB local indices */
(PID.TID 0000.0001)    26 @      -99                            /* J = -2: 23 */
(PID.TID 0000.0001)  OB_Iw = /* Western OB local indices */
(PID.TID 0000.0001)    26 @      -99                            /* J = -2: 23 */
(PID.TID 0000.0001) ======== Tile bi=  12 , bj=   6 ========
(PID.TID 0000.0001)  OB_Jn = /* Northern OB local indices */
(PID.TID 0000.0001)    23 @      -99                            /* I = -2: 20 */
(PID.TID 0000.0001)  OB_Js = /* Southern OB local indices */
(PID.TID 0000.0001)    23 @      -99                            /* I = -2: 20 */
(PID.TID 0000.0001)  OB_Ie = /* Eastern OB local indices */
(PID.TID 0000.0001)    26 @      -99                            /* J = -2: 23 */
(PID.TID 0000.0001)  OB_Iw = /* Western OB local indices */
(PID.TID 0000.0001)    26 @      -99                            /* J = -2: 23 */
(PID.TID 0000.0001) ======== Tile bi=  13 , bj=   6 ========
(PID.TID 0000.0001)  OB_Jn = /* Northern OB local indices */
(PID.TID 0000.0001)    23 @      -99                            /* I = -2: 20 */
(PID.TID 0000.0001)  OB_Js = /* Southern OB local indices */
(PID.TID 0000.0001)    23 @      -99                            /* I = -2: 20 */
(PID.TID 0000.0001)  OB_Ie = /* Eastern OB local indices */
(PID.TID 0000.0001)    26 @      -99                            /* J = -2: 23 */
(PID.TID 0000.0001)  OB_Iw = /* Western OB local indices */
(PID.TID 0000.0001)    26 @      -99                            /* J = -2: 23 */
(PID.TID 0000.0001) ======== Tile bi=  14 , bj=   6 ========
(PID.TID 0000.0001)  OB_Jn = /* Northern OB local indices */
(PID.TID 0000.0001)    23 @      -99                            /* I = -2: 20 */
(PID.TID 0000.0001)  OB_Js = /* Southern OB local indices */
(PID.TID 0000.0001)    23 @      -99                            /* I = -2: 20 */
(PID.TID 0000.0001)  OB_Ie = /* Eastern OB local indices */
(PID.TID 0000.0001)    26 @      -99                            /* J = -2: 23 */
(PID.TID 0000.0001)  OB_Iw = /* Western OB local indices */
(PID.TID 0000.0001)    26 @      -99                            /* J = -2: 23 */
(PID.TID 0000.0001) ======== Tile bi=  15 , bj=   6 ========
(PID.TID 0000.0001)  OB_Jn = /* Northern OB local indices */
(PID.TID 0000.0001)    23 @      -99                            /* I = -2: 20 */
(PID.TID 0000.0001)  OB_Js = /* Southern OB local indices */
(PID.TID 0000.0001)    23 @      -99                            /* I = -2: 20 */
(PID.TID 0000.0001)  OB_Ie = /* Eastern OB local indices */
(PID.TID 0000.0001)    26 @      -99                            /* J = -2: 23 */
(PID.TID 0000.0001)  OB_Iw = /* Western OB local indices */
(PID.TID 0000.0001)    26 @      -99                            /* J = -2: 23 */
(PID.TID 0000.0001) ======== Tile bi=  16 , bj=   6 ========
(PID.TID 0000.0001)  OB_Jn = /* Northern OB local indices */
(PID.TID 0000.0001)    23 @      -99                            /* I = -2: 20 */
(PID.TID 0000.0001)  OB_Js = /* Southern OB local indices */
(PID.TID 0000.0001)    23 @      -99                            /* I = -2: 20 */
(PID.TID 0000.0001)  OB_Ie = /* Eastern OB local indices */
(PID.TID 0000.0001)    26 @      -99                            /* J = -2: 23 */
(PID.TID 0000.0001)  OB_Iw = /* Western OB local indices */
(PID.TID 0000.0001)    26 @      -99                            /* J = -2: 23 */
(PID.TID 0000.0001) ======== Tile bi=   1 , bj=   7 ========
(PID.TID 0000.0001)  OB_Jn = /* Northern OB local indices */
(PID.TID 0000.0001)    23 @      -99                            /* I = -2: 20 */
(PID.TID 0000.0001)  OB_Js = /* Southern OB local indices */
(PID.TID 0000.0001)    23 @      -99                            /* I = -2: 20 */
(PID.TID 0000.0001)  OB_Ie = /* Eastern OB local indices */
(PID.TID 0000.0001)    26 @      -99                            /* J = -2: 23 */
(PID.TID 0000.0001)  OB_Iw = /* Western OB local indices */
(PID.TID 0000.0001)    26 @      -99                            /* J = -2: 23 */
(PID.TID 0000.0001) ======== Tile bi=   2 , bj=   7 ========
(PID.TID 0000.0001)  OB_Jn = /* Northern OB local indices */
(PID.TID 0000.0001)    23 @      -99                            /* I = -2: 20 */
(PID.TID 0000.0001)  OB_Js = /* Southern OB local indices */
(PID.TID 0000.0001)    23 @      -99                            /* I = -2: 20 */
(PID.TID 0000.0001)  OB_Ie = /* Eastern OB local indices */
(PID.TID 0000.0001)    26 @      -99                            /* J = -2: 23 */
(PID.TID 0000.0001)  OB_Iw = /* Western OB local indices */
(PID.TID 0000.0001)    26 @      -99                            /* J = -2: 23 */
(PID.TID 0000.0001) ======== Tile bi=   3 , bj=   7 ========
(PID.TID 0000.0001)  OB_Jn = /* Northern OB local indices */
(PID.TID 0000.0001)    23 @      -99                            /* I = -2: 20 */
(PID.TID 0000.0001)  OB_Js = /* Southern OB local indices */
(PID.TID 0000.0001)    23 @      -99                            /* I = -2: 20 */
(PID.TID 0000.0001)  OB_Ie = /* Eastern OB local indices */
(PID.TID 0000.0001)    26 @      -99                            /* J = -2: 23 */
(PID.TID 0000.0001)  OB_Iw = /* Western OB local indices */
(PID.TID 0000.0001)    26 @      -99                            /* J = -2: 23 */
(PID.TID 0000.0001) ======== Tile bi=   4 , bj=   7 ========
(PID.TID 0000.0001)  OB_Jn = /* Northern OB local indices */
(PID.TID 0000.0001)    23 @      -99                            /* I = -2: 20 */
(PID.TID 0000.0001)  OB_Js = /* Southern OB local indices */
(PID.TID 0000.0001)    23 @      -99                            /* I = -2: 20 */
(PID.TID 0000.0001)  OB_Ie = /* Eastern OB local indices */
(PID.TID 0000.0001)    26 @      -99                            /* J = -2: 23 */
(PID.TID 0000.0001)  OB_Iw = /* Western OB local indices */
(PID.TID 0000.0001)    26 @      -99                            /* J = -2: 23 */
(PID.TID 0000.0001) ======== Tile bi=   5 , bj=   7 ========
(PID.TID 0000.0001)  OB_Jn = /* Northern OB local indices */
(PID.TID 0000.0001)    23 @      -99                            /* I = -2: 20 */
(PID.TID 0000.0001)  OB_Js = /* Southern OB local indices */
(PID.TID 0000.0001)    23 @      -99                            /* I = -2: 20 */
(PID.TID 0000.0001)  OB_Ie = /* Eastern OB local indices */
(PID.TID 0000.0001)    26 @      -99                            /* J = -2: 23 */
(PID.TID 0000.0001)  OB_Iw = /* Western OB local indices */
(PID.TID 0000.0001)    26 @      -99                            /* J = -2: 23 */
(PID.TID 0000.0001) ======== Tile bi=   6 , bj=   7 ========
(PID.TID 0000.0001)  OB_Jn = /* Northern OB local indices */
(PID.TID 0000.0001)    23 @      -99                            /* I = -2: 20 */
(PID.TID 0000.0001)  OB_Js = /* Southern OB local indices */
(PID.TID 0000.0001)    23 @      -99                            /* I = -2: 20 */
(PID.TID 0000.0001)  OB_Ie = /* Eastern OB local indices */
(PID.TID 0000.0001)    26 @      -99                            /* J = -2: 23 */
(PID.TID 0000.0001)  OB_Iw = /* Western OB local indices */
(PID.TID 0000.0001)    26 @      -99                            /* J = -2: 23 */
(PID.TID 0000.0001) ======== Tile bi=   7 , bj=   7 ========
(PID.TID 0000.0001)  OB_Jn = /* Northern OB local indices */
(PID.TID 0000.0001)    23 @      -99                            /* I = -2: 20 */
(PID.TID 0000.0001)  OB_Js = /* Southern OB local indices */
(PID.TID 0000.0001)    23 @      -99                            /* I = -2: 20 */
(PID.TID 0000.0001)  OB_Ie = /* Eastern OB local indices */
(PID.TID 0000.0001)    26 @      -99                            /* J = -2: 23 */
(PID.TID 0000.0001)  OB_Iw = /* Western OB local indices */
(PID.TID 0000.0001)    26 @      -99                            /* J = -2: 23 */
(PID.TID 0000.0001) ======== Tile bi=   8 , bj=   7 ========
(PID.TID 0000.0001)  OB_Jn = /* Northern OB local indices */
(PID.TID 0000.0001)    23 @      -99                            /* I = -2: 20 */
(PID.TID 0000.0001)  OB_Js = /* Southern OB local indices */
(PID.TID 0000.0001)    23 @      -99                            /* I = -2: 20 */
(PID.TID 0000.0001)  OB_Ie = /* Eastern OB local indices */
(PID.TID 0000.0001)    26 @      -99                            /* J = -2: 23 */
(PID.TID 0000.0001)  OB_Iw = /* Western OB local indices */
(PID.TID 0000.0001)    26 @      -99                            /* J = -2: 23 */
(PID.TID 0000.0001) ======== Tile bi=   9 , bj=   7 ========
(PID.TID 0000.0001)  OB_Jn = /* Northern OB local indices */
(PID.TID 0000.0001)    23 @      -99                            /* I = -2: 20 */
(PID.TID 0000.0001)  OB_Js = /* Southern OB local indices */
(PID.TID 0000.0001)    23 @      -99                            /* I = -2: 20 */
(PID.TID 0000.0001)  OB_Ie = /* Eastern OB local indices */
(PID.TID 0000.0001)    26 @      -99                            /* J = -2: 23 */
(PID.TID 0000.0001)  OB_Iw = /* Western OB local indices */
(PID.TID 0000.0001)    26 @      -99                            /* J = -2: 23 */
(PID.TID 0000.0001) ======== Tile bi=  10 , bj=   7 ========
(PID.TID 0000.0001)  OB_Jn = /* Northern OB local indices */
(PID.TID 0000.0001)    23 @      -99                            /* I = -2: 20 */
(PID.TID 0000.0001)  OB_Js = /* Southern OB local indices */
(PID.TID 0000.0001)    23 @      -99                            /* I = -2: 20 */
(PID.TID 0000.0001)  OB_Ie = /* Eastern OB local indices */
(PID.TID 0000.0001)    26 @      -99                            /* J = -2: 23 */
(PID.TID 0000.0001)  OB_Iw = /* Western OB local indices */
(PID.TID 0000.0001)    26 @      -99                            /* J = -2: 23 */
(PID.TID 0000.0001) ======== Tile bi=  11 , bj=   7 ========
(PID.TID 0000.0001)  OB_Jn = /* Northern OB local indices */
(PID.TID 0000.0001)    23 @      -99                            /* I = -2: 20 */
(PID.TID 0000.0001)  OB_Js = /* Southern OB local indices */
(PID.TID 0000.0001)    23 @      -99                            /* I = -2: 20 */
(PID.TID 0000.0001)  OB_Ie = /* Eastern OB local indices */
(PID.TID 0000.0001)    26 @      -99                            /* J = -2: 23 */
(PID.TID 0000.0001)  OB_Iw = /* Western OB local indices */
(PID.TID 0000.0001)    26 @      -99                            /* J = -2: 23 */
(PID.TID 0000.0001) ======== Tile bi=  12 , bj=   7 ========
(PID.TID 0000.0001)  OB_Jn = /* Northern OB local indices */
(PID.TID 0000.0001)    23 @      -99                            /* I = -2: 20 */
(PID.TID 0000.0001)  OB_Js = /* Southern OB local indices */
(PID.TID 0000.0001)    23 @      -99                            /* I = -2: 20 */
(PID.TID 0000.0001)  OB_Ie = /* Eastern OB local indices */
(PID.TID 0000.0001)    26 @      -99                            /* J = -2: 23 */
(PID.TID 0000.0001)  OB_Iw = /* Western OB local indices */
(PID.TID 0000.0001)    26 @      -99                            /* J = -2: 23 */
(PID.TID 0000.0001) ======== Tile bi=  13 , bj=   7 ========
(PID.TID 0000.0001)  OB_Jn = /* Northern OB local indices */
(PID.TID 0000.0001)    23 @      -99                            /* I = -2: 20 */
(PID.TID 0000.0001)  OB_Js = /* Southern OB local indices */
(PID.TID 0000.0001)    23 @      -99                            /* I = -2: 20 */
(PID.TID 0000.0001)  OB_Ie = /* Eastern OB local indices */
(PID.TID 0000.0001)    26 @      -99                            /* J = -2: 23 */
(PID.TID 0000.0001)  OB_Iw = /* Western OB local indices */
(PID.TID 0000.0001)    26 @      -99                            /* J = -2: 23 */
(PID.TID 0000.0001) ======== Tile bi=  14 , bj=   7 ========
(PID.TID 0000.0001)  OB_Jn = /* Northern OB local indices */
(PID.TID 0000.0001)    23 @      -99                            /* I = -2: 20 */
(PID.TID 0000.0001)  OB_Js = /* Southern OB local indices */
(PID.TID 0000.0001)    23 @      -99                            /* I = -2: 20 */
(PID.TID 0000.0001)  OB_Ie = /* Eastern OB local indices */
(PID.TID 0000.0001)    26 @      -99                            /* J = -2: 23 */
(PID.TID 0000.0001)  OB_Iw = /* Western OB local indices */
(PID.TID 0000.0001)    26 @      -99                            /* J = -2: 23 */
(PID.TID 0000.0001) ======== Tile bi=  15 , bj=   7 ========
(PID.TID 0000.0001)  OB_Jn = /* Northern OB local indices */
(PID.TID 0000.0001)    23 @      -99                            /* I = -2: 20 */
(PID.TID 0000.0001)  OB_Js = /* Southern OB local indices */
(PID.TID 0000.0001)    23 @      -99                            /* I = -2: 20 */
(PID.TID 0000.0001)  OB_Ie = /* Eastern OB local indices */
(PID.TID 0000.0001)    26 @      -99                            /* J = -2: 23 */
(PID.TID 0000.0001)  OB_Iw = /* Western OB local indices */
(PID.TID 0000.0001)    26 @      -99                            /* J = -2: 23 */
(PID.TID 0000.0001) ======== Tile bi=  16 , bj=   7 ========
(PID.TID 0000.0001)  OB_Jn = /* Northern OB local indices */
(PID.TID 0000.0001)    23 @      -99                            /* I = -2: 20 */
(PID.TID 0000.0001)  OB_Js = /* Southern OB local indices */
(PID.TID 0000.0001)    23 @      -99                            /* I = -2: 20 */
(PID.TID 0000.0001)  OB_Ie = /* Eastern OB local indices */
(PID.TID 0000.0001)    26 @      -99                            /* J = -2: 23 */
(PID.TID 0000.0001)  OB_Iw = /* Western OB local indices */
(PID.TID 0000.0001)    26 @      -99                            /* J = -2: 23 */
(PID.TID 0000.0001) ======== Tile bi=   1 , bj=   8 ========
(PID.TID 0000.0001)  OB_Jn = /* Northern OB local indices */
(PID.TID 0000.0001)    23 @      -99                            /* I = -2: 20 */
(PID.TID 0000.0001)  OB_Js = /* Southern OB local indices */
(PID.TID 0000.0001)    23 @      -99                            /* I = -2: 20 */
(PID.TID 0000.0001)  OB_Ie = /* Eastern OB local indices */
(PID.TID 0000.0001)    26 @      -99                            /* J = -2: 23 */
(PID.TID 0000.0001)  OB_Iw = /* Western OB local indices */
(PID.TID 0000.0001)    26 @      -99                            /* J = -2: 23 */
(PID.TID 0000.0001) ======== Tile bi=   2 , bj=   8 ========
(PID.TID 0000.0001)  OB_Jn = /* Northern OB local indices */
(PID.TID 0000.0001)    23 @      -99                            /* I = -2: 20 */
(PID.TID 0000.0001)  OB_Js = /* Southern OB local indices */
(PID.TID 0000.0001)    23 @      -99                            /* I = -2: 20 */
(PID.TID 0000.0001)  OB_Ie = /* Eastern OB local indices */
(PID.TID 0000.0001)    26 @      -99                            /* J = -2: 23 */
(PID.TID 0000.0001)  OB_Iw = /* Western OB local indices */
(PID.TID 0000.0001)    26 @      -99                            /* J = -2: 23 */
(PID.TID 0000.0001) ======== Tile bi=   3 , bj=   8 ========
(PID.TID 0000.0001)  OB_Jn = /* Northern OB local indices */
(PID.TID 0000.0001)    23 @      -99                            /* I = -2: 20 */
(PID.TID 0000.0001)  OB_Js = /* Southern OB local indices */
(PID.TID 0000.0001)    23 @      -99                            /* I = -2: 20 */
(PID.TID 0000.0001)  OB_Ie = /* Eastern OB local indices */
(PID.TID 0000.0001)    26 @      -99                            /* J = -2: 23 */
(PID.TID 0000.0001)  OB_Iw = /* Western OB local indices */
(PID.TID 0000.0001)    26 @      -99                            /* J = -2: 23 */
(PID.TID 0000.0001) ======== Tile bi=   4 , bj=   8 ========
(PID.TID 0000.0001)  OB_Jn = /* Northern OB local indices */
(PID.TID 0000.0001)    23 @      -99                            /* I = -2: 20 */
(PID.TID 0000.0001)  OB_Js = /* Southern OB local indices */
(PID.TID 0000.0001)    23 @      -99                            /* I = -2: 20 */
(PID.TID 0000.0001)  OB_Ie = /* Eastern OB local indices */
(PID.TID 0000.0001)    26 @      -99                            /* J = -2: 23 */
(PID.TID 0000.0001)  OB_Iw = /* Western OB local indices */
(PID.TID 0000.0001)    26 @      -99                            /* J = -2: 23 */
(PID.TID 0000.0001) ======== Tile bi=   5 , bj=   8 ========
(PID.TID 0000.0001)  OB_Jn = /* Northern OB local indices */
(PID.TID 0000.0001)    23 @      -99                            /* I = -2: 20 */
(PID.TID 0000.0001)  OB_Js = /* Southern OB local indices */
(PID.TID 0000.0001)    23 @      -99                            /* I = -2: 20 */
(PID.TID 0000.0001)  OB_Ie = /* Eastern OB local indices */
(PID.TID 0000.0001)    26 @      -99                            /* J = -2: 23 */
(PID.TID 0000.0001)  OB_Iw = /* Western OB local indices */
(PID.TID 0000.0001)    26 @      -99                            /* J = -2: 23 */
(PID.TID 0000.0001) ======== Tile bi=   6 , bj=   8 ========
(PID.TID 0000.0001)  OB_Jn = /* Northern OB local indices */
(PID.TID 0000.0001)    23 @      -99                            /* I = -2: 20 */
(PID.TID 0000.0001)  OB_Js = /* Southern OB local indices */
(PID.TID 0000.0001)    23 @      -99                            /* I = -2: 20 */
(PID.TID 0000.0001)  OB_Ie = /* Eastern OB local indices */
(PID.TID 0000.0001)    26 @      -99                            /* J = -2: 23 */
(PID.TID 0000.0001)  OB_Iw = /* Western OB local indices */
(PID.TID 0000.0001)    26 @      -99                            /* J = -2: 23 */
(PID.TID 0000.0001) ======== Tile bi=   7 , bj=   8 ========
(PID.TID 0000.0001)  OB_Jn = /* Northern OB local indices */
(PID.TID 0000.0001)    23 @      -99                            /* I = -2: 20 */
(PID.TID 0000.0001)  OB_Js = /* Southern OB local indices */
(PID.TID 0000.0001)    23 @      -99                            /* I = -2: 20 */
(PID.TID 0000.0001)  OB_Ie = /* Eastern OB local indices */
(PID.TID 0000.0001)    26 @      -99                            /* J = -2: 23 */
(PID.TID 0000.0001)  OB_Iw = /* Western OB local indices */
(PID.TID 0000.0001)    26 @      -99                            /* J = -2: 23 */
(PID.TID 0000.0001) ======== Tile bi=   8 , bj=   8 ========
(PID.TID 0000.0001)  OB_Jn = /* Northern OB local indices */
(PID.TID 0000.0001)    23 @      -99                            /* I = -2: 20 */
(PID.TID 0000.0001)  OB_Js = /* Southern OB local indices */
(PID.TID 0000.0001)    23 @      -99                            /* I = -2: 20 */
(PID.TID 0000.0001)  OB_Ie = /* Eastern OB local indices */
(PID.TID 0000.0001)    26 @      -99                            /* J = -2: 23 */
(PID.TID 0000.0001)  OB_Iw = /* Western OB local indices */
(PID.TID 0000.0001)    26 @      -99                            /* J = -2: 23 */
(PID.TID 0000.0001) ======== Tile bi=   9 , bj=   8 ========
(PID.TID 0000.0001)  OB_Jn = /* Northern OB local indices */
(PID.TID 0000.0001)    23 @      -99                            /* I = -2: 20 */
(PID.TID 0000.0001)  OB_Js = /* Southern OB local indices */
(PID.TID 0000.0001)    23 @      -99                            /* I = -2: 20 */
(PID.TID 0000.0001)  OB_Ie = /* Eastern OB local indices */
(PID.TID 0000.0001)    26 @      -99                            /* J = -2: 23 */
(PID.TID 0000.0001)  OB_Iw = /* Western OB local indices */
(PID.TID 0000.0001)    26 @      -99                            /* J = -2: 23 */
(PID.TID 0000.0001) ======== Tile bi=  10 , bj=   8 ========
(PID.TID 0000.0001)  OB_Jn = /* Northern OB local indices */
(PID.TID 0000.0001)    23 @      -99                            /* I = -2: 20 */
(PID.TID 0000.0001)  OB_Js = /* Southern OB local indices */
(PID.TID 0000.0001)    23 @      -99                            /* I = -2: 20 */
(PID.TID 0000.0001)  OB_Ie = /* Eastern OB local indices */
(PID.TID 0000.0001)    26 @      -99                            /* J = -2: 23 */
(PID.TID 0000.0001)  OB_Iw = /* Western OB local indices */
(PID.TID 0000.0001)    26 @      -99                            /* J = -2: 23 */
(PID.TID 0000.0001) ======== Tile bi=  11 , bj=   8 ========
(PID.TID 0000.0001)  OB_Jn = /* Northern OB local indices */
(PID.TID 0000.0001)    23 @      -99                            /* I = -2: 20 */
(PID.TID 0000.0001)  OB_Js = /* Southern OB local indices */
(PID.TID 0000.0001)    23 @      -99                            /* I = -2: 20 */
(PID.TID 0000.0001)  OB_Ie = /* Eastern OB local indices */
(PID.TID 0000.0001)    26 @      -99                            /* J = -2: 23 */
(PID.TID 0000.0001)  OB_Iw = /* Western OB local indices */
(PID.TID 0000.0001)    26 @      -99                            /* J = -2: 23 */
(PID.TID 0000.0001) ======== Tile bi=  12 , bj=   8 ========
(PID.TID 0000.0001)  OB_Jn = /* Northern OB local indices */
(PID.TID 0000.0001)    23 @      -99                            /* I = -2: 20 */
(PID.TID 0000.0001)  OB_Js = /* Southern OB local indices */
(PID.TID 0000.0001)    23 @      -99                            /* I = -2: 20 */
(PID.TID 0000.0001)  OB_Ie = /* Eastern OB local indices */
(PID.TID 0000.0001)    26 @      -99                            /* J = -2: 23 */
(PID.TID 0000.0001)  OB_Iw = /* Western OB local indices */
(PID.TID 0000.0001)    26 @      -99                            /* J = -2: 23 */
(PID.TID 0000.0001) ======== Tile bi=  13 , bj=   8 ========
(PID.TID 0000.0001)  OB_Jn = /* Northern OB local indices */
(PID.TID 0000.0001)    23 @      -99                            /* I = -2: 20 */
(PID.TID 0000.0001)  OB_Js = /* Southern OB local indices */
(PID.TID 0000.0001)    23 @      -99                            /* I = -2: 20 */
(PID.TID 0000.0001)  OB_Ie = /* Eastern OB local indices */
(PID.TID 0000.0001)    26 @      -99                            /* J = -2: 23 */
(PID.TID 0000.0001)  OB_Iw = /* Western OB local indices */
(PID.TID 0000.0001)    26 @      -99                            /* J = -2: 23 */
(PID.TID 0000.0001) ======== Tile bi=  14 , bj=   8 ========
(PID.TID 0000.0001)  OB_Jn = /* Northern OB local indices */
(PID.TID 0000.0001)    23 @      -99                            /* I = -2: 20 */
(PID.TID 0000.0001)  OB_Js = /* Southern OB local indices */
(PID.TID 0000.0001)    23 @      -99                            /* I = -2: 20 */
(PID.TID 0000.0001)  OB_Ie = /* Eastern OB local indices */
(PID.TID 0000.0001)    26 @      -99                            /* J = -2: 23 */
(PID.TID 0000.0001)  OB_Iw = /* Western OB local indices */
(PID.TID 0000.0001)    26 @      -99                            /* J = -2: 23 */
(PID.TID 0000.0001) ======== Tile bi=  15 , bj=   8 ========
(PID.TID 0000.0001)  OB_Jn = /* Northern OB local indices */
(PID.TID 0000.0001)    23 @      -99                            /* I = -2: 20 */
(PID.TID 0000.0001)  OB_Js = /* Southern OB local indices */
(PID.TID 0000.0001)    23 @      -99                            /* I = -2: 20 */
(PID.TID 0000.0001)  OB_Ie = /* Eastern OB local indices */
(PID.TID 0000.0001)    26 @      -99                            /* J = -2: 23 */
(PID.TID 0000.0001)  OB_Iw = /* Western OB local indices */
(PID.TID 0000.0001)    26 @      -99                            /* J = -2: 23 */
(PID.TID 0000.0001) ======== Tile bi=  16 , bj=   8 ========
(PID.TID 0000.0001)  OB_Jn = /* Northern OB local indices */
(PID.TID 0000.0001)    23 @      -99                            /* I = -2: 20 */
(PID.TID 0000.0001)  OB_Js = /* Southern OB local indices */
(PID.TID 0000.0001)    23 @      -99                            /* I = -2: 20 */
(PID.TID 0000.0001)  OB_Ie = /* Eastern OB local indices */
(PID.TID 0000.0001)    26 @      -99                            /* J = -2: 23 */
(PID.TID 0000.0001)  OB_Iw = /* Western OB local indices */
(PID.TID 0000.0001)    26 @      -99                            /* J = -2: 23 */
(PID.TID 0000.0001) ======== Tile bi=   1 , bj=   9 ========
(PID.TID 0000.0001)  OB_Jn = /* Northern OB local indices */
(PID.TID 0000.0001)    23 @      -99                            /* I = -2: 20 */
(PID.TID 0000.0001)  OB_Js = /* Southern OB local indices */
(PID.TID 0000.0001)    23 @      -99                            /* I = -2: 20 */
(PID.TID 0000.0001)  OB_Ie = /* Eastern OB local indices */
(PID.TID 0000.0001)    26 @      -99                            /* J = -2: 23 */
(PID.TID 0000.0001)  OB_Iw = /* Western OB local indices */
(PID.TID 0000.0001)    26 @      -99                            /* J = -2: 23 */
(PID.TID 0000.0001) ======== Tile bi=   2 , bj=   9 ========
(PID.TID 0000.0001)  OB_Jn = /* Northern OB local indices */
(PID.TID 0000.0001)    23 @      -99                            /* I = -2: 20 */
(PID.TID 0000.0001)  OB_Js = /* Southern OB local indices */
(PID.TID 0000.0001)    23 @      -99                            /* I = -2: 20 */
(PID.TID 0000.0001)  OB_Ie = /* Eastern OB local indices */
(PID.TID 0000.0001)    26 @      -99                            /* J = -2: 23 */
(PID.TID 0000.0001)  OB_Iw = /* Western OB local indices */
(PID.TID 0000.0001)    26 @      -99                            /* J = -2: 23 */
(PID.TID 0000.0001) ======== Tile bi=   3 , bj=   9 ========
(PID.TID 0000.0001)  OB_Jn = /* Northern OB local indices */
(PID.TID 0000.0001)    23 @      -99                            /* I = -2: 20 */
(PID.TID 0000.0001)  OB_Js = /* Southern OB local indices */
(PID.TID 0000.0001)    23 @      -99                            /* I = -2: 20 */
(PID.TID 0000.0001)  OB_Ie = /* Eastern OB local indices */
(PID.TID 0000.0001)    26 @      -99                            /* J = -2: 23 */
(PID.TID 0000.0001)  OB_Iw = /* Western OB local indices */
(PID.TID 0000.0001)    26 @      -99                            /* J = -2: 23 */
(PID.TID 0000.0001) ======== Tile bi=   4 , bj=   9 ========
(PID.TID 0000.0001)  OB_Jn = /* Northern OB local indices */
(PID.TID 0000.0001)    23 @      -99                            /* I = -2: 20 */
(PID.TID 0000.0001)  OB_Js = /* Southern OB local indices */
(PID.TID 0000.0001)    23 @      -99                            /* I = -2: 20 */
(PID.TID 0000.0001)  OB_Ie = /* Eastern OB local indices */
(PID.TID 0000.0001)    26 @      -99                            /* J = -2: 23 */
(PID.TID 0000.0001)  OB_Iw = /* Western OB local indices */
(PID.TID 0000.0001)    26 @      -99                            /* J = -2: 23 */
(PID.TID 0000.0001) ======== Tile bi=   5 , bj=   9 ========
(PID.TID 0000.0001)  OB_Jn = /* Northern OB local indices */
(PID.TID 0000.0001)    23 @      -99                            /* I = -2: 20 */
(PID.TID 0000.0001)  OB_Js = /* Southern OB local indices */
(PID.TID 0000.0001)    23 @      -99                            /* I = -2: 20 */
(PID.TID 0000.0001)  OB_Ie = /* Eastern OB local indices */
(PID.TID 0000.0001)    26 @      -99                            /* J = -2: 23 */
(PID.TID 0000.0001)  OB_Iw = /* Western OB local indices */
(PID.TID 0000.0001)    26 @      -99                            /* J = -2: 23 */
(PID.TID 0000.0001) ======== Tile bi=   6 , bj=   9 ========
(PID.TID 0000.0001)  OB_Jn = /* Northern OB local indices */
(PID.TID 0000.0001)    23 @      -99                            /* I = -2: 20 */
(PID.TID 0000.0001)  OB_Js = /* Southern OB local indices */
(PID.TID 0000.0001)    23 @      -99                            /* I = -2: 20 */
(PID.TID 0000.0001)  OB_Ie = /* Eastern OB local indices */
(PID.TID 0000.0001)    26 @      -99                            /* J = -2: 23 */
(PID.TID 0000.0001)  OB_Iw = /* Western OB local indices */
(PID.TID 0000.0001)    26 @      -99                            /* J = -2: 23 */
(PID.TID 0000.0001) ======== Tile bi=   7 , bj=   9 ========
(PID.TID 0000.0001)  OB_Jn = /* Northern OB local indices */
(PID.TID 0000.0001)    23 @      -99                            /* I = -2: 20 */
(PID.TID 0000.0001)  OB_Js = /* Southern OB local indices */
(PID.TID 0000.0001)    23 @      -99                            /* I = -2: 20 */
(PID.TID 0000.0001)  OB_Ie = /* Eastern OB local indices */
(PID.TID 0000.0001)    26 @      -99                            /* J = -2: 23 */
(PID.TID 0000.0001)  OB_Iw = /* Western OB local indices */
(PID.TID 0000.0001)    26 @      -99                            /* J = -2: 23 */
(PID.TID 0000.0001) ======== Tile bi=   8 , bj=   9 ========
(PID.TID 0000.0001)  OB_Jn = /* Northern OB local indices */
(PID.TID 0000.0001)    23 @      -99                            /* I = -2: 20 */
(PID.TID 0000.0001)  OB_Js = /* Southern OB local indices */
(PID.TID 0000.0001)    23 @      -99                            /* I = -2: 20 */
(PID.TID 0000.0001)  OB_Ie = /* Eastern OB local indices */
(PID.TID 0000.0001)    26 @      -99                            /* J = -2: 23 */
(PID.TID 0000.0001)  OB_Iw = /* Western OB local indices */
(PID.TID 0000.0001)    26 @      -99                            /* J = -2: 23 */
(PID.TID 0000.0001) ======== Tile bi=   9 , bj=   9 ========
(PID.TID 0000.0001)  OB_Jn = /* Northern OB local indices */
(PID.TID 0000.0001)    23 @      -99                            /* I = -2: 20 */
(PID.TID 0000.0001)  OB_Js = /* Southern OB local indices */
(PID.TID 0000.0001)    23 @      -99                            /* I = -2: 20 */
(PID.TID 0000.0001)  OB_Ie = /* Eastern OB local indices */
(PID.TID 0000.0001)    26 @      -99                            /* J = -2: 23 */
(PID.TID 0000.0001)  OB_Iw = /* Western OB local indices */
(PID.TID 0000.0001)    26 @      -99                            /* J = -2: 23 */
(PID.TID 0000.0001) ======== Tile bi=  10 , bj=   9 ========
(PID.TID 0000.0001)  OB_Jn = /* Northern OB local indices */
(PID.TID 0000.0001)    23 @      -99                            /* I = -2: 20 */
(PID.TID 0000.0001)  OB_Js = /* Southern OB local indices */
(PID.TID 0000.0001)    23 @      -99                            /* I = -2: 20 */
(PID.TID 0000.0001)  OB_Ie = /* Eastern OB local indices */
(PID.TID 0000.0001)    26 @      -99                            /* J = -2: 23 */
(PID.TID 0000.0001)  OB_Iw = /* Western OB local indices */
(PID.TID 0000.0001)    26 @      -99                            /* J = -2: 23 */
(PID.TID 0000.0001) ======== Tile bi=  11 , bj=   9 ========
(PID.TID 0000.0001)  OB_Jn = /* Northern OB local indices */
(PID.TID 0000.0001)    23 @      -99                            /* I = -2: 20 */
(PID.TID 0000.0001)  OB_Js = /* Southern OB local indices */
(PID.TID 0000.0001)    23 @      -99                            /* I = -2: 20 */
(PID.TID 0000.0001)  OB_Ie = /* Eastern OB local indices */
(PID.TID 0000.0001)    26 @      -99                            /* J = -2: 23 */
(PID.TID 0000.0001)  OB_Iw = /* Western OB local indices */
(PID.TID 0000.0001)    26 @      -99                            /* J = -2: 23 */
(PID.TID 0000.0001) ======== Tile bi=  12 , bj=   9 ========
(PID.TID 0000.0001)  OB_Jn = /* Northern OB local indices */
(PID.TID 0000.0001)    23 @      -99                            /* I = -2: 20 */
(PID.TID 0000.0001)  OB_Js = /* Southern OB local indices */
(PID.TID 0000.0001)    23 @      -99                            /* I = -2: 20 */
(PID.TID 0000.0001)  OB_Ie = /* Eastern OB local indices */
(PID.TID 0000.0001)    26 @      -99                            /* J = -2: 23 */
(PID.TID 0000.0001)  OB_Iw = /* Western OB local indices */
(PID.TID 0000.0001)    26 @      -99                            /* J = -2: 23 */
(PID.TID 0000.0001) ======== Tile bi=  13 , bj=   9 ========
(PID.TID 0000.0001)  OB_Jn = /* Northern OB local indices */
(PID.TID 0000.0001)    23 @      -99                            /* I = -2: 20 */
(PID.TID 0000.0001)  OB_Js = /* Southern OB local indices */
(PID.TID 0000.0001)    23 @      -99                            /* I = -2: 20 */
(PID.TID 0000.0001)  OB_Ie = /* Eastern OB local indices */
(PID.TID 0000.0001)    26 @      -99                            /* J = -2: 23 */
(PID.TID 0000.0001)  OB_Iw = /* Western OB local indices */
(PID.TID 0000.0001)    26 @      -99                            /* J = -2: 23 */
(PID.TID 0000.0001) ======== Tile bi=  14 , bj=   9 ========
(PID.TID 0000.0001)  OB_Jn = /* Northern OB local indices */
(PID.TID 0000.0001)    23 @      -99                            /* I = -2: 20 */
(PID.TID 0000.0001)  OB_Js = /* Southern OB local indices */
(PID.TID 0000.0001)    23 @      -99                            /* I = -2: 20 */
(PID.TID 0000.0001)  OB_Ie = /* Eastern OB local indices */
(PID.TID 0000.0001)    26 @      -99                            /* J = -2: 23 */
(PID.TID 0000.0001)  OB_Iw = /* Western OB local indices */
(PID.TID 0000.0001)    26 @      -99                            /* J = -2: 23 */
(PID.TID 0000.0001) ======== Tile bi=  15 , bj=   9 ========
(PID.TID 0000.0001)  OB_Jn = /* Northern OB local indices */
(PID.TID 0000.0001)    23 @      -99                            /* I = -2: 20 */
(PID.TID 0000.0001)  OB_Js = /* Southern OB local indices */
(PID.TID 0000.0001)    23 @      -99                            /* I = -2: 20 */
(PID.TID 0000.0001)  OB_Ie = /* Eastern OB local indices */
(PID.TID 0000.0001)    26 @      -99                            /* J = -2: 23 */
(PID.TID 0000.0001)  OB_Iw = /* Western OB local indices */
(PID.TID 0000.0001)    26 @      -99                            /* J = -2: 23 */
(PID.TID 0000.0001) ======== Tile bi=  16 , bj=   9 ========
(PID.TID 0000.0001)  OB_Jn = /* Northern OB local indices */
(PID.TID 0000.0001)    23 @      -99                            /* I = -2: 20 */
(PID.TID 0000.0001)  OB_Js = /* Southern OB local indices */
(PID.TID 0000.0001)    23 @      -99                            /* I = -2: 20 */
(PID.TID 0000.0001)  OB_Ie = /* Eastern OB local indices */
(PID.TID 0000.0001)    26 @      -99                            /* J = -2: 23 */
(PID.TID 0000.0001)  OB_Iw = /* Western OB local indices */
(PID.TID 0000.0001)    26 @      -99                            /* J = -2: 23 */
(PID.TID 0000.0001) ======== Tile bi=   1 , bj=  10 ========
(PID.TID 0000.0001)  OB_Jn = /* Northern OB local indices */
(PID.TID 0000.0001)    23 @      -99                            /* I = -2: 20 */
(PID.TID 0000.0001)  OB_Js = /* Southern OB local indices */
(PID.TID 0000.0001)    23 @      -99                            /* I = -2: 20 */
(PID.TID 0000.0001)  OB_Ie = /* Eastern OB local indices */
(PID.TID 0000.0001)    26 @      -99                            /* J = -2: 23 */
(PID.TID 0000.0001)  OB_Iw = /* Western OB local indices */
(PID.TID 0000.0001)    26 @      -99                            /* J = -2: 23 */
(PID.TID 0000.0001) ======== Tile bi=   2 , bj=  10 ========
(PID.TID 0000.0001)  OB_Jn = /* Northern OB local indices */
(PID.TID 0000.0001)    23 @      -99                            /* I = -2: 20 */
(PID.TID 0000.0001)  OB_Js = /* Southern OB local indices */
(PID.TID 0000.0001)    23 @      -99                            /* I = -2: 20 */
(PID.TID 0000.0001)  OB_Ie = /* Eastern OB local indices */
(PID.TID 0000.0001)    26 @      -99                            /* J = -2: 23 */
(PID.TID 0000.0001)  OB_Iw = /* Western OB local indices */
(PID.TID 0000.0001)    26 @      -99                            /* J = -2: 23 */
(PID.TID 0000.0001) ======== Tile bi=   3 , bj=  10 ========
(PID.TID 0000.0001)  OB_Jn = /* Northern OB local indices */
(PID.TID 0000.0001)    23 @      -99                            /* I = -2: 20 */
(PID.TID 0000.0001)  OB_Js = /* Southern OB local indices */
(PID.TID 0000.0001)    23 @      -99                            /* I = -2: 20 */
(PID.TID 0000.0001)  OB_Ie = /* Eastern OB local indices */
(PID.TID 0000.0001)    26 @      -99                            /* J = -2: 23 */
(PID.TID 0000.0001)  OB_Iw = /* Western OB local indices */
(PID.TID 0000.0001)    26 @      -99                            /* J = -2: 23 */
(PID.TID 0000.0001) ======== Tile bi=   4 , bj=  10 ========
(PID.TID 0000.0001)  OB_Jn = /* Northern OB local indices */
(PID.TID 0000.0001)    23 @      -99                            /* I = -2: 20 */
(PID.TID 0000.0001)  OB_Js = /* Southern OB local indices */
(PID.TID 0000.0001)    23 @      -99                            /* I = -2: 20 */
(PID.TID 0000.0001)  OB_Ie = /* Eastern OB local indices */
(PID.TID 0000.0001)    26 @      -99                            /* J = -2: 23 */
(PID.TID 0000.0001)  OB_Iw = /* Western OB local indices */
(PID.TID 0000.0001)    26 @      -99                            /* J = -2: 23 */
(PID.TID 0000.0001) ======== Tile bi=   5 , bj=  10 ========
(PID.TID 0000.0001)  OB_Jn = /* Northern OB local indices */
(PID.TID 0000.0001)    23 @      -99                            /* I = -2: 20 */
(PID.TID 0000.0001)  OB_Js = /* Southern OB local indices */
(PID.TID 0000.0001)    23 @      -99                            /* I = -2: 20 */
(PID.TID 0000.0001)  OB_Ie = /* Eastern OB local indices */
(PID.TID 0000.0001)    26 @      -99                            /* J = -2: 23 */
(PID.TID 0000.0001)  OB_Iw = /* Western OB local indices */
(PID.TID 0000.0001)    26 @      -99                            /* J = -2: 23 */
(PID.TID 0000.0001) ======== Tile bi=   6 , bj=  10 ========
(PID.TID 0000.0001)  OB_Jn = /* Northern OB local indices */
(PID.TID 0000.0001)    23 @      -99                            /* I = -2: 20 */
(PID.TID 0000.0001)  OB_Js = /* Southern OB local indices */
(PID.TID 0000.0001)    23 @      -99                            /* I = -2: 20 */
(PID.TID 0000.0001)  OB_Ie = /* Eastern OB local indices */
(PID.TID 0000.0001)    26 @      -99                            /* J = -2: 23 */
(PID.TID 0000.0001)  OB_Iw = /* Western OB local indices */
(PID.TID 0000.0001)    26 @      -99                            /* J = -2: 23 */
(PID.TID 0000.0001) ======== Tile bi=   7 , bj=  10 ========
(PID.TID 0000.0001)  OB_Jn = /* Northern OB local indices */
(PID.TID 0000.0001)    23 @      -99                            /* I = -2: 20 */
(PID.TID 0000.0001)  OB_Js = /* Southern OB local indices */
(PID.TID 0000.0001)    23 @      -99                            /* I = -2: 20 */
(PID.TID 0000.0001)  OB_Ie = /* Eastern OB local indices */
(PID.TID 0000.0001)    26 @      -99                            /* J = -2: 23 */
(PID.TID 0000.0001)  OB_Iw = /* Western OB local indices */
(PID.TID 0000.0001)    26 @      -99                            /* J = -2: 23 */
(PID.TID 0000.0001) ======== Tile bi=   8 , bj=  10 ========
(PID.TID 0000.0001)  OB_Jn = /* Northern OB local indices */
(PID.TID 0000.0001)    23 @      -99                            /* I = -2: 20 */
(PID.TID 0000.0001)  OB_Js = /* Southern OB local indices */
(PID.TID 0000.0001)    23 @      -99                            /* I = -2: 20 */
(PID.TID 0000.0001)  OB_Ie = /* Eastern OB local indices */
(PID.TID 0000.0001)    26 @      -99                            /* J = -2: 23 */
(PID.TID 0000.0001)  OB_Iw = /* Western OB local indices */
(PID.TID 0000.0001)    26 @      -99                            /* J = -2: 23 */
(PID.TID 0000.0001) ======== Tile bi=   9 , bj=  10 ========
(PID.TID 0000.0001)  OB_Jn = /* Northern OB local indices */
(PID.TID 0000.0001)    23 @      -99                            /* I = -2: 20 */
(PID.TID 0000.0001)  OB_Js = /* Southern OB local indices */
(PID.TID 0000.0001)    23 @      -99                            /* I = -2: 20 */
(PID.TID 0000.0001)  OB_Ie = /* Eastern OB local indices */
(PID.TID 0000.0001)    26 @      -99                            /* J = -2: 23 */
(PID.TID 0000.0001)  OB_Iw = /* Western OB local indices */
(PID.TID 0000.0001)    26 @      -99                            /* J = -2: 23 */
(PID.TID 0000.0001) ======== Tile bi=  10 , bj=  10 ========
(PID.TID 0000.0001)  OB_Jn = /* Northern OB local indices */
(PID.TID 0000.0001)    23 @      -99                            /* I = -2: 20 */
(PID.TID 0000.0001)  OB_Js = /* Southern OB local indices */
(PID.TID 0000.0001)    23 @      -99                            /* I = -2: 20 */
(PID.TID 0000.0001)  OB_Ie = /* Eastern OB local indices */
(PID.TID 0000.0001)    26 @      -99                            /* J = -2: 23 */
(PID.TID 0000.0001)  OB_Iw = /* Western OB local indices */
(PID.TID 0000.0001)    26 @      -99                            /* J = -2: 23 */
(PID.TID 0000.0001) ======== Tile bi=  11 , bj=  10 ========
(PID.TID 0000.0001)  OB_Jn = /* Northern OB local indices */
(PID.TID 0000.0001)    23 @      -99                            /* I = -2: 20 */
(PID.TID 0000.0001)  OB_Js = /* Southern OB local indices */
(PID.TID 0000.0001)    23 @      -99                            /* I = -2: 20 */
(PID.TID 0000.0001)  OB_Ie = /* Eastern OB local indices */
(PID.TID 0000.0001)    26 @      -99                            /* J = -2: 23 */
(PID.TID 0000.0001)  OB_Iw = /* Western OB local indices */
(PID.TID 0000.0001)    26 @      -99                            /* J = -2: 23 */
(PID.TID 0000.0001) ======== Tile bi=  12 , bj=  10 ========
(PID.TID 0000.0001)  OB_Jn = /* Northern OB local indices */
(PID.TID 0000.0001)    23 @      -99                            /* I = -2: 20 */
(PID.TID 0000.0001)  OB_Js = /* Southern OB local indices */
(PID.TID 0000.0001)    23 @      -99                            /* I = -2: 20 */
(PID.TID 0000.0001)  OB_Ie = /* Eastern OB local indices */
(PID.TID 0000.0001)    26 @      -99                            /* J = -2: 23 */
(PID.TID 0000.0001)  OB_Iw = /* Western OB local indices */
(PID.TID 0000.0001)    26 @      -99                            /* J = -2: 23 */
(PID.TID 0000.0001) ======== Tile bi=  13 , bj=  10 ========
(PID.TID 0000.0001)  OB_Jn = /* Northern OB local indices */
(PID.TID 0000.0001)    23 @      -99                            /* I = -2: 20 */
(PID.TID 0000.0001)  OB_Js = /* Southern OB local indices */
(PID.TID 0000.0001)    23 @      -99                            /* I = -2: 20 */
(PID.TID 0000.0001)  OB_Ie = /* Eastern OB local indices */
(PID.TID 0000.0001)    26 @      -99                            /* J = -2: 23 */
(PID.TID 0000.0001)  OB_Iw = /* Western OB local indices */
(PID.TID 0000.0001)    26 @      -99                            /* J = -2: 23 */
(PID.TID 0000.0001) ======== Tile bi=  14 , bj=  10 ========
(PID.TID 0000.0001)  OB_Jn = /* Northern OB local indices */
(PID.TID 0000.0001)    23 @      -99                            /* I = -2: 20 */
(PID.TID 0000.0001)  OB_Js = /* Southern OB local indices */
(PID.TID 0000.0001)    23 @      -99                            /* I = -2: 20 */
(PID.TID 0000.0001)  OB_Ie = /* Eastern OB local indices */
(PID.TID 0000.0001)    26 @      -99                            /* J = -2: 23 */
(PID.TID 0000.0001)  OB_Iw = /* Western OB local indices */
(PID.TID 0000.0001)    26 @      -99                            /* J = -2: 23 */
(PID.TID 0000.0001) ======== Tile bi=  15 , bj=  10 ========
(PID.TID 0000.0001)  OB_Jn = /* Northern OB local indices */
(PID.TID 0000.0001)    23 @      -99                            /* I = -2: 20 */
(PID.TID 0000.0001)  OB_Js = /* Southern OB local indices */
(PID.TID 0000.0001)    23 @      -99                            /* I = -2: 20 */
(PID.TID 0000.0001)  OB_Ie = /* Eastern OB local indices */
(PID.TID 0000.0001)    26 @      -99                            /* J = -2: 23 */
(PID.TID 0000.0001)  OB_Iw = /* Western OB local indices */
(PID.TID 0000.0001)    26 @      -99                            /* J = -2: 23 */
(PID.TID 0000.0001) ======== Tile bi=  16 , bj=  10 ========
(PID.TID 0000.0001)  OB_Jn = /* Northern OB local indices */
(PID.TID 0000.0001)    23 @      -99                            /* I = -2: 20 */
(PID.TID 0000.0001)  OB_Js = /* Southern OB local indices */
(PID.TID 0000.0001)    23 @      -99                            /* I = -2: 20 */
(PID.TID 0000.0001)  OB_Ie = /* Eastern OB local indices */
(PID.TID 0000.0001)    26 @      -99                            /* J = -2: 23 */
(PID.TID 0000.0001)  OB_Iw = /* Western OB local indices */
(PID.TID 0000.0001)    26 @      -99                            /* J = -2: 23 */
(PID.TID 0000.0001) ======== Tile bi=   1 , bj=  11 ========
(PID.TID 0000.0001)  OB_Jn = /* Northern OB local indices */
(PID.TID 0000.0001)    23 @      -99                            /* I = -2: 20 */
(PID.TID 0000.0001)  OB_Js = /* Southern OB local indices */
(PID.TID 0000.0001)    23 @      -99                            /* I = -2: 20 */
(PID.TID 0000.0001)  OB_Ie = /* Eastern OB local indices */
(PID.TID 0000.0001)    26 @      -99                            /* J = -2: 23 */
(PID.TID 0000.0001)  OB_Iw = /* Western OB local indices */
(PID.TID 0000.0001)    26 @      -99                            /* J = -2: 23 */
(PID.TID 0000.0001) ======== Tile bi=   2 , bj=  11 ========
(PID.TID 0000.0001)  OB_Jn = /* Northern OB local indices */
(PID.TID 0000.0001)    23 @      -99                            /* I = -2: 20 */
(PID.TID 0000.0001)  OB_Js = /* Southern OB local indices */
(PID.TID 0000.0001)    23 @      -99                            /* I = -2: 20 */
(PID.TID 0000.0001)  OB_Ie = /* Eastern OB local indices */
(PID.TID 0000.0001)    26 @      -99                            /* J = -2: 23 */
(PID.TID 0000.0001)  OB_Iw = /* Western OB local indices */
(PID.TID 0000.0001)    26 @      -99                            /* J = -2: 23 */
(PID.TID 0000.0001) ======== Tile bi=   3 , bj=  11 ========
(PID.TID 0000.0001)  OB_Jn = /* Northern OB local indices */
(PID.TID 0000.0001)    23 @      -99                            /* I = -2: 20 */
(PID.TID 0000.0001)  OB_Js = /* Southern OB local indices */
(PID.TID 0000.0001)    23 @      -99                            /* I = -2: 20 */
(PID.TID 0000.0001)  OB_Ie = /* Eastern OB local indices */
(PID.TID 0000.0001)    26 @      -99                            /* J = -2: 23 */
(PID.TID 0000.0001)  OB_Iw = /* Western OB local indices */
(PID.TID 0000.0001)    26 @      -99                            /* J = -2: 23 */
(PID.TID 0000.0001) ======== Tile bi=   4 , bj=  11 ========
(PID.TID 0000.0001)  OB_Jn = /* Northern OB local indices */
(PID.TID 0000.0001)    23 @      -99                            /* I = -2: 20 */
(PID.TID 0000.0001)  OB_Js = /* Southern OB local indices */
(PID.TID 0000.0001)    23 @      -99                            /* I = -2: 20 */
(PID.TID 0000.0001)  OB_Ie = /* Eastern OB local indices */
(PID.TID 0000.0001)    26 @      -99                            /* J = -2: 23 */
(PID.TID 0000.0001)  OB_Iw = /* Western OB local indices */
(PID.TID 0000.0001)    26 @      -99                            /* J = -2: 23 */
(PID.TID 0000.0001) ======== Tile bi=   5 , bj=  11 ========
(PID.TID 0000.0001)  OB_Jn = /* Northern OB local indices */
(PID.TID 0000.0001)    23 @      -99                            /* I = -2: 20 */
(PID.TID 0000.0001)  OB_Js = /* Southern OB local indices */
(PID.TID 0000.0001)    23 @      -99                            /* I = -2: 20 */
(PID.TID 0000.0001)  OB_Ie = /* Eastern OB local indices */
(PID.TID 0000.0001)    26 @      -99                            /* J = -2: 23 */
(PID.TID 0000.0001)  OB_Iw = /* Western OB local indices */
(PID.TID 0000.0001)    26 @      -99                            /* J = -2: 23 */
(PID.TID 0000.0001) ======== Tile bi=   6 , bj=  11 ========
(PID.TID 0000.0001)  OB_Jn = /* Northern OB local indices */
(PID.TID 0000.0001)    23 @      -99                            /* I = -2: 20 */
(PID.TID 0000.0001)  OB_Js = /* Southern OB local indices */
(PID.TID 0000.0001)    23 @      -99                            /* I = -2: 20 */
(PID.TID 0000.0001)  OB_Ie = /* Eastern OB local indices */
(PID.TID 0000.0001)    26 @      -99                            /* J = -2: 23 */
(PID.TID 0000.0001)  OB_Iw = /* Western OB local indices */
(PID.TID 0000.0001)    26 @      -99                            /* J = -2: 23 */
(PID.TID 0000.0001) ======== Tile bi=   7 , bj=  11 ========
(PID.TID 0000.0001)  OB_Jn = /* Northern OB local indices */
(PID.TID 0000.0001)    23 @      -99                            /* I = -2: 20 */
(PID.TID 0000.0001)  OB_Js = /* Southern OB local indices */
(PID.TID 0000.0001)    23 @      -99                            /* I = -2: 20 */
(PID.TID 0000.0001)  OB_Ie = /* Eastern OB local indices */
(PID.TID 0000.0001)    26 @      -99                            /* J = -2: 23 */
(PID.TID 0000.0001)  OB_Iw = /* Western OB local indices */
(PID.TID 0000.0001)    26 @      -99                            /* J = -2: 23 */
(PID.TID 0000.0001) ======== Tile bi=   8 , bj=  11 ========
(PID.TID 0000.0001)  OB_Jn = /* Northern OB local indices */
(PID.TID 0000.0001)    23 @      -99                            /* I = -2: 20 */
(PID.TID 0000.0001)  OB_Js = /* Southern OB local indices */
(PID.TID 0000.0001)    23 @      -99                            /* I = -2: 20 */
(PID.TID 0000.0001)  OB_Ie = /* Eastern OB local indices */
(PID.TID 0000.0001)    26 @      -99                            /* J = -2: 23 */
(PID.TID 0000.0001)  OB_Iw = /* Western OB local indices */
(PID.TID 0000.0001)    26 @      -99                            /* J = -2: 23 */
(PID.TID 0000.0001) ======== Tile bi=   9 , bj=  11 ========
(PID.TID 0000.0001)  OB_Jn = /* Northern OB local indices */
(PID.TID 0000.0001)    23 @      -99                            /* I = -2: 20 */
(PID.TID 0000.0001)  OB_Js = /* Southern OB local indices */
(PID.TID 0000.0001)    23 @      -99                            /* I = -2: 20 */
(PID.TID 0000.0001)  OB_Ie = /* Eastern OB local indices */
(PID.TID 0000.0001)    26 @      -99                            /* J = -2: 23 */
(PID.TID 0000.0001)  OB_Iw = /* Western OB local indices */
(PID.TID 0000.0001)    26 @      -99                            /* J = -2: 23 */
(PID.TID 0000.0001) ======== Tile bi=  10 , bj=  11 ========
(PID.TID 0000.0001)  OB_Jn = /* Northern OB local indices */
(PID.TID 0000.0001)    23 @      -99                            /* I = -2: 20 */
(PID.TID 0000.0001)  OB_Js = /* Southern OB local indices */
(PID.TID 0000.0001)    23 @      -99                            /* I = -2: 20 */
(PID.TID 0000.0001)  OB_Ie = /* Eastern OB local indices */
(PID.TID 0000.0001)    26 @      -99                            /* J = -2: 23 */
(PID.TID 0000.0001)  OB_Iw = /* Western OB local indices */
(PID.TID 0000.0001)    26 @      -99                            /* J = -2: 23 */
(PID.TID 0000.0001) ======== Tile bi=  11 , bj=  11 ========
(PID.TID 0000.0001)  OB_Jn = /* Northern OB local indices */
(PID.TID 0000.0001)    23 @      -99                            /* I = -2: 20 */
(PID.TID 0000.0001)  OB_Js = /* Southern OB local indices */
(PID.TID 0000.0001)    23 @      -99                            /* I = -2: 20 */
(PID.TID 0000.0001)  OB_Ie = /* Eastern OB local indices */
(PID.TID 0000.0001)    26 @      -99                            /* J = -2: 23 */
(PID.TID 0000.0001)  OB_Iw = /* Western OB local indices */
(PID.TID 0000.0001)    26 @      -99                            /* J = -2: 23 */
(PID.TID 0000.0001) ======== Tile bi=  12 , bj=  11 ========
(PID.TID 0000.0001)  OB_Jn = /* Northern OB local indices */
(PID.TID 0000.0001)    23 @      -99                            /* I = -2: 20 */
(PID.TID 0000.0001)  OB_Js = /* Southern OB local indices */
(PID.TID 0000.0001)    23 @      -99                            /* I = -2: 20 */
(PID.TID 0000.0001)  OB_Ie = /* Eastern OB local indices */
(PID.TID 0000.0001)    26 @      -99                            /* J = -2: 23 */
(PID.TID 0000.0001)  OB_Iw = /* Western OB local indices */
(PID.TID 0000.0001)    26 @      -99                            /* J = -2: 23 */
(PID.TID 0000.0001) ======== Tile bi=  13 , bj=  11 ========
(PID.TID 0000.0001)  OB_Jn = /* Northern OB local indices */
(PID.TID 0000.0001)    23 @      -99                            /* I = -2: 20 */
(PID.TID 0000.0001)  OB_Js = /* Southern OB local indices */
(PID.TID 0000.0001)    23 @      -99                            /* I = -2: 20 */
(PID.TID 0000.0001)  OB_Ie = /* Eastern OB local indices */
(PID.TID 0000.0001)    26 @      -99                            /* J = -2: 23 */
(PID.TID 0000.0001)  OB_Iw = /* Western OB local indices */
(PID.TID 0000.0001)    26 @      -99                            /* J = -2: 23 */
(PID.TID 0000.0001) ======== Tile bi=  14 , bj=  11 ========
(PID.TID 0000.0001)  OB_Jn = /* Northern OB local indices */
(PID.TID 0000.0001)    23 @      -99                            /* I = -2: 20 */
(PID.TID 0000.0001)  OB_Js = /* Southern OB local indices */
(PID.TID 0000.0001)    23 @      -99                            /* I = -2: 20 */
(PID.TID 0000.0001)  OB_Ie = /* Eastern OB local indices */
(PID.TID 0000.0001)    26 @      -99                            /* J = -2: 23 */
(PID.TID 0000.0001)  OB_Iw = /* Western OB local indices */
(PID.TID 0000.0001)    26 @      -99                            /* J = -2: 23 */
(PID.TID 0000.0001) ======== Tile bi=  15 , bj=  11 ========
(PID.TID 0000.0001)  OB_Jn = /* Northern OB local indices */
(PID.TID 0000.0001)    23 @      -99                            /* I = -2: 20 */
(PID.TID 0000.0001)  OB_Js = /* Southern OB local indices */
(PID.TID 0000.0001)    23 @      -99                            /* I = -2: 20 */
(PID.TID 0000.0001)  OB_Ie = /* Eastern OB local indices */
(PID.TID 0000.0001)    26 @      -99                            /* J = -2: 23 */
(PID.TID 0000.0001)  OB_Iw = /* Western OB local indices */
(PID.TID 0000.0001)    26 @      -99                            /* J = -2: 23 */
(PID.TID 0000.0001) ======== Tile bi=  16 , bj=  11 ========
(PID.TID 0000.0001)  OB_Jn = /* Northern OB local indices */
(PID.TID 0000.0001)    23 @      -99                            /* I = -2: 20 */
(PID.TID 0000.0001)  OB_Js = /* Southern OB local indices */
(PID.TID 0000.0001)    23 @      -99                            /* I = -2: 20 */
(PID.TID 0000.0001)  OB_Ie = /* Eastern OB local indices */
(PID.TID 0000.0001)    26 @      -99                            /* J = -2: 23 */
(PID.TID 0000.0001)  OB_Iw = /* Western OB local indices */
(PID.TID 0000.0001)    26 @      -99                            /* J = -2: 23 */
(PID.TID 0000.0001) ======== Tile bi=   1 , bj=  12 ========
(PID.TID 0000.0001)  OB_Jn = /* Northern OB local indices */
(PID.TID 0000.0001)    23 @      -99                            /* I = -2: 20 */
(PID.TID 0000.0001)  OB_Js = /* Southern OB local indices */
(PID.TID 0000.0001)    23 @      -99                            /* I = -2: 20 */
(PID.TID 0000.0001)  OB_Ie = /* Eastern OB local indices */
(PID.TID 0000.0001)    26 @      -99                            /* J = -2: 23 */
(PID.TID 0000.0001)  OB_Iw = /* Western OB local indices */
(PID.TID 0000.0001)    26 @      -99                            /* J = -2: 23 */
(PID.TID 0000.0001) ======== Tile bi=   2 , bj=  12 ========
(PID.TID 0000.0001)  OB_Jn = /* Northern OB local indices */
(PID.TID 0000.0001)    23 @      -99                            /* I = -2: 20 */
(PID.TID 0000.0001)  OB_Js = /* Southern OB local indices */
(PID.TID 0000.0001)    23 @      -99                            /* I = -2: 20 */
(PID.TID 0000.0001)  OB_Ie = /* Eastern OB local indices */
(PID.TID 0000.0001)    26 @      -99                            /* J = -2: 23 */
(PID.TID 0000.0001)  OB_Iw = /* Western OB local indices */
(PID.TID 0000.0001)    26 @      -99                            /* J = -2: 23 */
(PID.TID 0000.0001) ======== Tile bi=   3 , bj=  12 ========
(PID.TID 0000.0001)  OB_Jn = /* Northern OB local indices */
(PID.TID 0000.0001)    23 @      -99                            /* I = -2: 20 */
(PID.TID 0000.0001)  OB_Js = /* Southern OB local indices */
(PID.TID 0000.0001)    23 @      -99                            /* I = -2: 20 */
(PID.TID 0000.0001)  OB_Ie = /* Eastern OB local indices */
(PID.TID 0000.0001)    26 @      -99                            /* J = -2: 23 */
(PID.TID 0000.0001)  OB_Iw = /* Western OB local indices */
(PID.TID 0000.0001)    26 @      -99                            /* J = -2: 23 */
(PID.TID 0000.0001) ======== Tile bi=   4 , bj=  12 ========
(PID.TID 0000.0001)  OB_Jn = /* Northern OB local indices */
(PID.TID 0000.0001)    23 @      -99                            /* I = -2: 20 */
(PID.TID 0000.0001)  OB_Js = /* Southern OB local indices */
(PID.TID 0000.0001)    23 @      -99                            /* I = -2: 20 */
(PID.TID 0000.0001)  OB_Ie = /* Eastern OB local indices */
(PID.TID 0000.0001)    26 @      -99                            /* J = -2: 23 */
(PID.TID 0000.0001)  OB_Iw = /* Western OB local indices */
(PID.TID 0000.0001)    26 @      -99                            /* J = -2: 23 */
(PID.TID 0000.0001) ======== Tile bi=   5 , bj=  12 ========
(PID.TID 0000.0001)  OB_Jn = /* Northern OB local indices */
(PID.TID 0000.0001)    23 @      -99                            /* I = -2: 20 */
(PID.TID 0000.0001)  OB_Js = /* Southern OB local indices */
(PID.TID 0000.0001)    23 @      -99                            /* I = -2: 20 */
(PID.TID 0000.0001)  OB_Ie = /* Eastern OB local indices */
(PID.TID 0000.0001)    26 @      -99                            /* J = -2: 23 */
(PID.TID 0000.0001)  OB_Iw = /* Western OB local indices */
(PID.TID 0000.0001)    26 @      -99                            /* J = -2: 23 */
(PID.TID 0000.0001) ======== Tile bi=   6 , bj=  12 ========
(PID.TID 0000.0001)  OB_Jn = /* Northern OB local indices */
(PID.TID 0000.0001)    23 @      -99                            /* I = -2: 20 */
(PID.TID 0000.0001)  OB_Js = /* Southern OB local indices */
(PID.TID 0000.0001)    23 @      -99                            /* I = -2: 20 */
(PID.TID 0000.0001)  OB_Ie = /* Eastern OB local indices */
(PID.TID 0000.0001)    26 @      -99                            /* J = -2: 23 */
(PID.TID 0000.0001)  OB_Iw = /* Western OB local indices */
(PID.TID 0000.0001)    26 @      -99                            /* J = -2: 23 */
(PID.TID 0000.0001) ======== Tile bi=   7 , bj=  12 ========
(PID.TID 0000.0001)  OB_Jn = /* Northern OB local indices */
(PID.TID 0000.0001)    23 @      -99                            /* I = -2: 20 */
(PID.TID 0000.0001)  OB_Js = /* Southern OB local indices */
(PID.TID 0000.0001)    23 @      -99                            /* I = -2: 20 */
(PID.TID 0000.0001)  OB_Ie = /* Eastern OB local indices */
(PID.TID 0000.0001)    26 @      -99                            /* J = -2: 23 */
(PID.TID 0000.0001)  OB_Iw = /* Western OB local indices */
(PID.TID 0000.0001)    26 @      -99                            /* J = -2: 23 */
(PID.TID 0000.0001) ======== Tile bi=   8 , bj=  12 ========
(PID.TID 0000.0001)  OB_Jn = /* Northern OB local indices */
(PID.TID 0000.0001)    23 @      -99                            /* I = -2: 20 */
(PID.TID 0000.0001)  OB_Js = /* Southern OB local indices */
(PID.TID 0000.0001)    23 @      -99                            /* I = -2: 20 */
(PID.TID 0000.0001)  OB_Ie = /* Eastern OB local indices */
(PID.TID 0000.0001)    26 @      -99                            /* J = -2: 23 */
(PID.TID 0000.0001)  OB_Iw = /* Western OB local indices */
(PID.TID 0000.0001)    26 @      -99                            /* J = -2: 23 */
(PID.TID 0000.0001) ======== Tile bi=   9 , bj=  12 ========
(PID.TID 0000.0001)  OB_Jn = /* Northern OB local indices */
(PID.TID 0000.0001)    23 @      -99                            /* I = -2: 20 */
(PID.TID 0000.0001)  OB_Js = /* Southern OB local indices */
(PID.TID 0000.0001)    23 @      -99                            /* I = -2: 20 */
(PID.TID 0000.0001)  OB_Ie = /* Eastern OB local indices */
(PID.TID 0000.0001)    26 @      -99                            /* J = -2: 23 */
(PID.TID 0000.0001)  OB_Iw = /* Western OB local indices */
(PID.TID 0000.0001)    26 @      -99                            /* J = -2: 23 */
(PID.TID 0000.0001) ======== Tile bi=  10 , bj=  12 ========
(PID.TID 0000.0001)  OB_Jn = /* Northern OB local indices */
(PID.TID 0000.0001)    23 @      -99                            /* I = -2: 20 */
(PID.TID 0000.0001)  OB_Js = /* Southern OB local indices */
(PID.TID 0000.0001)    23 @      -99                            /* I = -2: 20 */
(PID.TID 0000.0001)  OB_Ie = /* Eastern OB local indices */
(PID.TID 0000.0001)    26 @      -99                            /* J = -2: 23 */
(PID.TID 0000.0001)  OB_Iw = /* Western OB local indices */
(PID.TID 0000.0001)    26 @      -99                            /* J = -2: 23 */
(PID.TID 0000.0001) ======== Tile bi=  11 , bj=  12 ========
(PID.TID 0000.0001)  OB_Jn = /* Northern OB local indices */
(PID.TID 0000.0001)    23 @      -99                            /* I = -2: 20 */
(PID.TID 0000.0001)  OB_Js = /* Southern OB local indices */
(PID.TID 0000.0001)    23 @      -99                            /* I = -2: 20 */
(PID.TID 0000.0001)  OB_Ie = /* Eastern OB local indices */
(PID.TID 0000.0001)    26 @      -99                            /* J = -2: 23 */
(PID.TID 0000.0001)  OB_Iw = /* Western OB local indices */
(PID.TID 0000.0001)    26 @      -99                            /* J = -2: 23 */
(PID.TID 0000.0001) ======== Tile bi=  12 , bj=  12 ========
(PID.TID 0000.0001)  OB_Jn = /* Northern OB local indices */
(PID.TID 0000.0001)    23 @      -99                            /* I = -2: 20 */
(PID.TID 0000.0001)  OB_Js = /* Southern OB local indices */
(PID.TID 0000.0001)    23 @      -99                            /* I = -2: 20 */
(PID.TID 0000.0001)  OB_Ie = /* Eastern OB local indices */
(PID.TID 0000.0001)    26 @      -99                            /* J = -2: 23 */
(PID.TID 0000.0001)  OB_Iw = /* Western OB local indices */
(PID.TID 0000.0001)    26 @      -99                            /* J = -2: 23 */
(PID.TID 0000.0001) ======== Tile bi=  13 , bj=  12 ========
(PID.TID 0000.0001)  OB_Jn = /* Northern OB local indices */
(PID.TID 0000.0001)    23 @      -99                            /* I = -2: 20 */
(PID.TID 0000.0001)  OB_Js = /* Southern OB local indices */
(PID.TID 0000.0001)    23 @      -99                            /* I = -2: 20 */
(PID.TID 0000.0001)  OB_Ie = /* Eastern OB local indices */
(PID.TID 0000.0001)    26 @      -99                            /* J = -2: 23 */
(PID.TID 0000.0001)  OB_Iw = /* Western OB local indices */
(PID.TID 0000.0001)    26 @      -99                            /* J = -2: 23 */
(PID.TID 0000.0001) ======== Tile bi=  14 , bj=  12 ========
(PID.TID 0000.0001)  OB_Jn = /* Northern OB local indices */
(PID.TID 0000.0001)    23 @      -99                            /* I = -2: 20 */
(PID.TID 0000.0001)  OB_Js = /* Southern OB local indices */
(PID.TID 0000.0001)    23 @      -99                            /* I = -2: 20 */
(PID.TID 0000.0001)  OB_Ie = /* Eastern OB local indices */
(PID.TID 0000.0001)    26 @      -99                            /* J = -2: 23 */
(PID.TID 0000.0001)  OB_Iw = /* Western OB local indices */
(PID.TID 0000.0001)    26 @      -99                            /* J = -2: 23 */
(PID.TID 0000.0001) ======== Tile bi=  15 , bj=  12 ========
(PID.TID 0000.0001)  OB_Jn = /* Northern OB local indices */
(PID.TID 0000.0001)    23 @      -99                            /* I = -2: 20 */
(PID.TID 0000.0001)  OB_Js = /* Southern OB local indices */
(PID.TID 0000.0001)    23 @      -99                            /* I = -2: 20 */
(PID.TID 0000.0001)  OB_Ie = /* Eastern OB local indices */
(PID.TID 0000.0001)    26 @      -99                            /* J = -2: 23 */
(PID.TID 0000.0001)  OB_Iw = /* Western OB local indices */
(PID.TID 0000.0001)    26 @      -99                            /* J = -2: 23 */
(PID.TID 0000.0001) ======== Tile bi=  16 , bj=  12 ========
(PID.TID 0000.0001)  OB_Jn = /* Northern OB local indices */
(PID.TID 0000.0001)    23 @      -99                            /* I = -2: 20 */
(PID.TID 0000.0001)  OB_Js = /* Southern OB local indices */
(PID.TID 0000.0001)    23 @      -99                            /* I = -2: 20 */
(PID.TID 0000.0001)  OB_Ie = /* Eastern OB local indices */
(PID.TID 0000.0001)    26 @      -99                            /* J = -2: 23 */
(PID.TID 0000.0001)  OB_Iw = /* Western OB local indices */
(PID.TID 0000.0001)    26 @      -99                            /* J = -2: 23 */
(PID.TID 0000.0001) ======== Tile bi=   1 , bj=  13 ========
(PID.TID 0000.0001)  OB_Jn = /* Northern OB local indices */
(PID.TID 0000.0001)    23 @      -99                            /* I = -2: 20 */
(PID.TID 0000.0001)  OB_Js = /* Southern OB local indices */
(PID.TID 0000.0001)    23 @      -99                            /* I = -2: 20 */
(PID.TID 0000.0001)  OB_Ie = /* Eastern OB local indices */
(PID.TID 0000.0001)    26 @      -99                            /* J = -2: 23 */
(PID.TID 0000.0001)  OB_Iw = /* Western OB local indices */
(PID.TID 0000.0001)    26 @      -99                            /* J = -2: 23 */
(PID.TID 0000.0001) ======== Tile bi=   2 , bj=  13 ========
(PID.TID 0000.0001)  OB_Jn = /* Northern OB local indices */
(PID.TID 0000.0001)    23 @      -99                            /* I = -2: 20 */
(PID.TID 0000.0001)  OB_Js = /* Southern OB local indices */
(PID.TID 0000.0001)    23 @      -99                            /* I = -2: 20 */
(PID.TID 0000.0001)  OB_Ie = /* Eastern OB local indices */
(PID.TID 0000.0001)    26 @      -99                            /* J = -2: 23 */
(PID.TID 0000.0001)  OB_Iw = /* Western OB local indices */
(PID.TID 0000.0001)    26 @      -99                            /* J = -2: 23 */
(PID.TID 0000.0001) ======== Tile bi=   3 , bj=  13 ========
(PID.TID 0000.0001)  OB_Jn = /* Northern OB local indices */
(PID.TID 0000.0001)    23 @      -99                            /* I = -2: 20 */
(PID.TID 0000.0001)  OB_Js = /* Southern OB local indices */
(PID.TID 0000.0001)    23 @      -99                            /* I = -2: 20 */
(PID.TID 0000.0001)  OB_Ie = /* Eastern OB local indices */
(PID.TID 0000.0001)    26 @      -99                            /* J = -2: 23 */
(PID.TID 0000.0001)  OB_Iw = /* Western OB local indices */
(PID.TID 0000.0001)    26 @      -99                            /* J = -2: 23 */
(PID.TID 0000.0001) ======== Tile bi=   4 , bj=  13 ========
(PID.TID 0000.0001)  OB_Jn = /* Northern OB local indices */
(PID.TID 0000.0001)    23 @      -99                            /* I = -2: 20 */
(PID.TID 0000.0001)  OB_Js = /* Southern OB local indices */
(PID.TID 0000.0001)    23 @      -99                            /* I = -2: 20 */
(PID.TID 0000.0001)  OB_Ie = /* Eastern OB local indices */
(PID.TID 0000.0001)    26 @      -99                            /* J = -2: 23 */
(PID.TID 0000.0001)  OB_Iw = /* Western OB local indices */
(PID.TID 0000.0001)    26 @      -99                            /* J = -2: 23 */
(PID.TID 0000.0001) ======== Tile bi=   5 , bj=  13 ========
(PID.TID 0000.0001)  OB_Jn = /* Northern OB local indices */
(PID.TID 0000.0001)    23 @      -99                            /* I = -2: 20 */
(PID.TID 0000.0001)  OB_Js = /* Southern OB local indices */
(PID.TID 0000.0001)    23 @      -99                            /* I = -2: 20 */
(PID.TID 0000.0001)  OB_Ie = /* Eastern OB local indices */
(PID.TID 0000.0001)    26 @      -99                            /* J = -2: 23 */
(PID.TID 0000.0001)  OB_Iw = /* Western OB local indices */
(PID.TID 0000.0001)    26 @      -99                            /* J = -2: 23 */
(PID.TID 0000.0001) ======== Tile bi=   6 , bj=  13 ========
(PID.TID 0000.0001)  OB_Jn = /* Northern OB local indices */
(PID.TID 0000.0001)    23 @      -99                            /* I = -2: 20 */
(PID.TID 0000.0001)  OB_Js = /* Southern OB local indices */
(PID.TID 0000.0001)    23 @      -99                            /* I = -2: 20 */
(PID.TID 0000.0001)  OB_Ie = /* Eastern OB local indices */
(PID.TID 0000.0001)    26 @      -99                            /* J = -2: 23 */
(PID.TID 0000.0001)  OB_Iw = /* Western OB local indices */
(PID.TID 0000.0001)    26 @      -99                            /* J = -2: 23 */
(PID.TID 0000.0001) ======== Tile bi=   7 , bj=  13 ========
(PID.TID 0000.0001)  OB_Jn = /* Northern OB local indices */
(PID.TID 0000.0001)    23 @      -99                            /* I = -2: 20 */
(PID.TID 0000.0001)  OB_Js = /* Southern OB local indices */
(PID.TID 0000.0001)    23 @      -99                            /* I = -2: 20 */
(PID.TID 0000.0001)  OB_Ie = /* Eastern OB local indices */
(PID.TID 0000.0001)    26 @      -99                            /* J = -2: 23 */
(PID.TID 0000.0001)  OB_Iw = /* Western OB local indices */
(PID.TID 0000.0001)    26 @      -99                            /* J = -2: 23 */
(PID.TID 0000.0001) ======== Tile bi=   8 , bj=  13 ========
(PID.TID 0000.0001)  OB_Jn = /* Northern OB local indices */
(PID.TID 0000.0001)    23 @      -99                            /* I = -2: 20 */
(PID.TID 0000.0001)  OB_Js = /* Southern OB local indices */
(PID.TID 0000.0001)    23 @      -99                            /* I = -2: 20 */
(PID.TID 0000.0001)  OB_Ie = /* Eastern OB local indices */
(PID.TID 0000.0001)    26 @      -99                            /* J = -2: 23 */
(PID.TID 0000.0001)  OB_Iw = /* Western OB local indices */
(PID.TID 0000.0001)    26 @      -99                            /* J = -2: 23 */
(PID.TID 0000.0001) ======== Tile bi=   9 , bj=  13 ========
(PID.TID 0000.0001)  OB_Jn = /* Northern OB local indices */
(PID.TID 0000.0001)    23 @      -99                            /* I = -2: 20 */
(PID.TID 0000.0001)  OB_Js = /* Southern OB local indices */
(PID.TID 0000.0001)    23 @      -99                            /* I = -2: 20 */
(PID.TID 0000.0001)  OB_Ie = /* Eastern OB local indices */
(PID.TID 0000.0001)    26 @      -99                            /* J = -2: 23 */
(PID.TID 0000.0001)  OB_Iw = /* Western OB local indices */
(PID.TID 0000.0001)    26 @      -99                            /* J = -2: 23 */
(PID.TID 0000.0001) ======== Tile bi=  10 , bj=  13 ========
(PID.TID 0000.0001)  OB_Jn = /* Northern OB local indices */
(PID.TID 0000.0001)    23 @      -99                            /* I = -2: 20 */
(PID.TID 0000.0001)  OB_Js = /* Southern OB local indices */
(PID.TID 0000.0001)    23 @      -99                            /* I = -2: 20 */
(PID.TID 0000.0001)  OB_Ie = /* Eastern OB local indices */
(PID.TID 0000.0001)    26 @      -99                            /* J = -2: 23 */
(PID.TID 0000.0001)  OB_Iw = /* Western OB local indices */
(PID.TID 0000.0001)    26 @      -99                            /* J = -2: 23 */
(PID.TID 0000.0001) ======== Tile bi=  11 , bj=  13 ========
(PID.TID 0000.0001)  OB_Jn = /* Northern OB local indices */
(PID.TID 0000.0001)    23 @      -99                            /* I = -2: 20 */
(PID.TID 0000.0001)  OB_Js = /* Southern OB local indices */
(PID.TID 0000.0001)    23 @      -99                            /* I = -2: 20 */
(PID.TID 0000.0001)  OB_Ie = /* Eastern OB local indices */
(PID.TID 0000.0001)    26 @      -99                            /* J = -2: 23 */
(PID.TID 0000.0001)  OB_Iw = /* Western OB local indices */
(PID.TID 0000.0001)    26 @      -99                            /* J = -2: 23 */
(PID.TID 0000.0001) ======== Tile bi=  12 , bj=  13 ========
(PID.TID 0000.0001)  OB_Jn = /* Northern OB local indices */
(PID.TID 0000.0001)    23 @      -99                            /* I = -2: 20 */
(PID.TID 0000.0001)  OB_Js = /* Southern OB local indices */
(PID.TID 0000.0001)    23 @      -99                            /* I = -2: 20 */
(PID.TID 0000.0001)  OB_Ie = /* Eastern OB local indices */
(PID.TID 0000.0001)    26 @      -99                            /* J = -2: 23 */
(PID.TID 0000.0001)  OB_Iw = /* Western OB local indices */
(PID.TID 0000.0001)    26 @      -99                            /* J = -2: 23 */
(PID.TID 0000.0001) ======== Tile bi=  13 , bj=  13 ========
(PID.TID 0000.0001)  OB_Jn = /* Northern OB local indices */
(PID.TID 0000.0001)    23 @      -99                            /* I = -2: 20 */
(PID.TID 0000.0001)  OB_Js = /* Southern OB local indices */
(PID.TID 0000.0001)    23 @      -99                            /* I = -2: 20 */
(PID.TID 0000.0001)  OB_Ie = /* Eastern OB local indices */
(PID.TID 0000.0001)    26 @      -99                            /* J = -2: 23 */
(PID.TID 0000.0001)  OB_Iw = /* Western OB local indices */
(PID.TID 0000.0001)    26 @      -99                            /* J = -2: 23 */
(PID.TID 0000.0001) ======== Tile bi=  14 , bj=  13 ========
(PID.TID 0000.0001)  OB_Jn = /* Northern OB local indices */
(PID.TID 0000.0001)    23 @      -99                            /* I = -2: 20 */
(PID.TID 0000.0001)  OB_Js = /* Southern OB local indices */
(PID.TID 0000.0001)    23 @      -99                            /* I = -2: 20 */
(PID.TID 0000.0001)  OB_Ie = /* Eastern OB local indices */
(PID.TID 0000.0001)    26 @      -99                            /* J = -2: 23 */
(PID.TID 0000.0001)  OB_Iw = /* Western OB local indices */
(PID.TID 0000.0001)    26 @      -99                            /* J = -2: 23 */
(PID.TID 0000.0001) ======== Tile bi=  15 , bj=  13 ========
(PID.TID 0000.0001)  OB_Jn = /* Northern OB local indices */
(PID.TID 0000.0001)    23 @      -99                            /* I = -2: 20 */
(PID.TID 0000.0001)  OB_Js = /* Southern OB local indices */
(PID.TID 0000.0001)    23 @      -99                            /* I = -2: 20 */
(PID.TID 0000.0001)  OB_Ie = /* Eastern OB local indices */
(PID.TID 0000.0001)    26 @      -99                            /* J = -2: 23 */
(PID.TID 0000.0001)  OB_Iw = /* Western OB local indices */
(PID.TID 0000.0001)    26 @      -99                            /* J = -2: 23 */
(PID.TID 0000.0001) ======== Tile bi=  16 , bj=  13 ========
(PID.TID 0000.0001)  OB_Jn = /* Northern OB local indices */
(PID.TID 0000.0001)    23 @      -99                            /* I = -2: 20 */
(PID.TID 0000.0001)  OB_Js = /* Southern OB local indices */
(PID.TID 0000.0001)    23 @      -99                            /* I = -2: 20 */
(PID.TID 0000.0001)  OB_Ie = /* Eastern OB local indices */
(PID.TID 0000.0001)    26 @      -99                            /* J = -2: 23 */
(PID.TID 0000.0001)  OB_Iw = /* Western OB local indices */
(PID.TID 0000.0001)    26 @      -99                            /* J = -2: 23 */
(PID.TID 0000.0001) ======== Tile bi=   1 , bj=  14 ========
(PID.TID 0000.0001)  OB_Jn = /* Northern OB local indices */
(PID.TID 0000.0001)    23 @      -99                            /* I = -2: 20 */
(PID.TID 0000.0001)  OB_Js = /* Southern OB local indices */
(PID.TID 0000.0001)    23 @      -99                            /* I = -2: 20 */
(PID.TID 0000.0001)  OB_Ie = /* Eastern OB local indices */
(PID.TID 0000.0001)    26 @      -99                            /* J = -2: 23 */
(PID.TID 0000.0001)  OB_Iw = /* Western OB local indices */
(PID.TID 0000.0001)    26 @      -99                            /* J = -2: 23 */
(PID.TID 0000.0001) ======== Tile bi=   2 , bj=  14 ========
(PID.TID 0000.0001)  OB_Jn = /* Northern OB local indices */
(PID.TID 0000.0001)    23 @      -99                            /* I = -2: 20 */
(PID.TID 0000.0001)  OB_Js = /* Southern OB local indices */
(PID.TID 0000.0001)    23 @      -99                            /* I = -2: 20 */
(PID.TID 0000.0001)  OB_Ie = /* Eastern OB local indices */
(PID.TID 0000.0001)    26 @      -99                            /* J = -2: 23 */
(PID.TID 0000.0001)  OB_Iw = /* Western OB local indices */
(PID.TID 0000.0001)    26 @      -99                            /* J = -2: 23 */
(PID.TID 0000.0001) ======== Tile bi=   3 , bj=  14 ========
(PID.TID 0000.0001)  OB_Jn = /* Northern OB local indices */
(PID.TID 0000.0001)    23 @      -99                            /* I = -2: 20 */
(PID.TID 0000.0001)  OB_Js = /* Southern OB local indices */
(PID.TID 0000.0001)    23 @      -99                            /* I = -2: 20 */
(PID.TID 0000.0001)  OB_Ie = /* Eastern OB local indices */
(PID.TID 0000.0001)    26 @      -99                            /* J = -2: 23 */
(PID.TID 0000.0001)  OB_Iw = /* Western OB local indices */
(PID.TID 0000.0001)    26 @      -99                            /* J = -2: 23 */
(PID.TID 0000.0001) ======== Tile bi=   4 , bj=  14 ========
(PID.TID 0000.0001)  OB_Jn = /* Northern OB local indices */
(PID.TID 0000.0001)    23 @      -99                            /* I = -2: 20 */
(PID.TID 0000.0001)  OB_Js = /* Southern OB local indices */
(PID.TID 0000.0001)    23 @      -99                            /* I = -2: 20 */
(PID.TID 0000.0001)  OB_Ie = /* Eastern OB local indices */
(PID.TID 0000.0001)    26 @      -99                            /* J = -2: 23 */
(PID.TID 0000.0001)  OB_Iw = /* Western OB local indices */
(PID.TID 0000.0001)    26 @      -99                            /* J = -2: 23 */
(PID.TID 0000.0001) ======== Tile bi=   5 , bj=  14 ========
(PID.TID 0000.0001)  OB_Jn = /* Northern OB local indices */
(PID.TID 0000.0001)    23 @      -99                            /* I = -2: 20 */
(PID.TID 0000.0001)  OB_Js = /* Southern OB local indices */
(PID.TID 0000.0001)    23 @      -99                            /* I = -2: 20 */
(PID.TID 0000.0001)  OB_Ie = /* Eastern OB local indices */
(PID.TID 0000.0001)    26 @      -99                            /* J = -2: 23 */
(PID.TID 0000.0001)  OB_Iw = /* Western OB local indices */
(PID.TID 0000.0001)    26 @      -99                            /* J = -2: 23 */
(PID.TID 0000.0001) ======== Tile bi=   6 , bj=  14 ========
(PID.TID 0000.0001)  OB_Jn = /* Northern OB local indices */
(PID.TID 0000.0001)    23 @      -99                            /* I = -2: 20 */
(PID.TID 0000.0001)  OB_Js = /* Southern OB local indices */
(PID.TID 0000.0001)    23 @      -99                            /* I = -2: 20 */
(PID.TID 0000.0001)  OB_Ie = /* Eastern OB local indices */
(PID.TID 0000.0001)    26 @      -99                            /* J = -2: 23 */
(PID.TID 0000.0001)  OB_Iw = /* Western OB local indices */
(PID.TID 0000.0001)    26 @      -99                            /* J = -2: 23 */
(PID.TID 0000.0001) ======== Tile bi=   7 , bj=  14 ========
(PID.TID 0000.0001)  OB_Jn = /* Northern OB local indices */
(PID.TID 0000.0001)    23 @      -99                            /* I = -2: 20 */
(PID.TID 0000.0001)  OB_Js = /* Southern OB local indices */
(PID.TID 0000.0001)    23 @      -99                            /* I = -2: 20 */
(PID.TID 0000.0001)  OB_Ie = /* Eastern OB local indices */
(PID.TID 0000.0001)    26 @      -99                            /* J = -2: 23 */
(PID.TID 0000.0001)  OB_Iw = /* Western OB local indices */
(PID.TID 0000.0001)    26 @      -99                            /* J = -2: 23 */
(PID.TID 0000.0001) ======== Tile bi=   8 , bj=  14 ========
(PID.TID 0000.0001)  OB_Jn = /* Northern OB local indices */
(PID.TID 0000.0001)    23 @      -99                            /* I = -2: 20 */
(PID.TID 0000.0001)  OB_Js = /* Southern OB local indices */
(PID.TID 0000.0001)    23 @      -99                            /* I = -2: 20 */
(PID.TID 0000.0001)  OB_Ie = /* Eastern OB local indices */
(PID.TID 0000.0001)    26 @      -99                            /* J = -2: 23 */
(PID.TID 0000.0001)  OB_Iw = /* Western OB local indices */
(PID.TID 0000.0001)    26 @      -99                            /* J = -2: 23 */
(PID.TID 0000.0001) ======== Tile bi=   9 , bj=  14 ========
(PID.TID 0000.0001)  OB_Jn = /* Northern OB local indices */
(PID.TID 0000.0001)    23 @      -99                            /* I = -2: 20 */
(PID.TID 0000.0001)  OB_Js = /* Southern OB local indices */
(PID.TID 0000.0001)    23 @      -99                            /* I = -2: 20 */
(PID.TID 0000.0001)  OB_Ie = /* Eastern OB local indices */
(PID.TID 0000.0001)    26 @      -99                            /* J = -2: 23 */
(PID.TID 0000.0001)  OB_Iw = /* Western OB local indices */
(PID.TID 0000.0001)    26 @      -99                            /* J = -2: 23 */
(PID.TID 0000.0001) ======== Tile bi=  10 , bj=  14 ========
(PID.TID 0000.0001)  OB_Jn = /* Northern OB local indices */
(PID.TID 0000.0001)    23 @      -99                            /* I = -2: 20 */
(PID.TID 0000.0001)  OB_Js = /* Southern OB local indices */
(PID.TID 0000.0001)    23 @      -99                            /* I = -2: 20 */
(PID.TID 0000.0001)  OB_Ie = /* Eastern OB local indices */
(PID.TID 0000.0001)    26 @      -99                            /* J = -2: 23 */
(PID.TID 0000.0001)  OB_Iw = /* Western OB local indices */
(PID.TID 0000.0001)    26 @      -99                            /* J = -2: 23 */
(PID.TID 0000.0001) ======== Tile bi=  11 , bj=  14 ========
(PID.TID 0000.0001)  OB_Jn = /* Northern OB local indices */
(PID.TID 0000.0001)    23 @      -99                            /* I = -2: 20 */
(PID.TID 0000.0001)  OB_Js = /* Southern OB local indices */
(PID.TID 0000.0001)    23 @      -99                            /* I = -2: 20 */
(PID.TID 0000.0001)  OB_Ie = /* Eastern OB local indices */
(PID.TID 0000.0001)    26 @      -99                            /* J = -2: 23 */
(PID.TID 0000.0001)  OB_Iw = /* Western OB local indices */
(PID.TID 0000.0001)    26 @      -99                            /* J = -2: 23 */
(PID.TID 0000.0001) ======== Tile bi=  12 , bj=  14 ========
(PID.TID 0000.0001)  OB_Jn = /* Northern OB local indices */
(PID.TID 0000.0001)    23 @      -99                            /* I = -2: 20 */
(PID.TID 0000.0001)  OB_Js = /* Southern OB local indices */
(PID.TID 0000.0001)    23 @      -99                            /* I = -2: 20 */
(PID.TID 0000.0001)  OB_Ie = /* Eastern OB local indices */
(PID.TID 0000.0001)    26 @      -99                            /* J = -2: 23 */
(PID.TID 0000.0001)  OB_Iw = /* Western OB local indices */
(PID.TID 0000.0001)    26 @      -99                            /* J = -2: 23 */
(PID.TID 0000.0001) ======== Tile bi=  13 , bj=  14 ========
(PID.TID 0000.0001)  OB_Jn = /* Northern OB local indices */
(PID.TID 0000.0001)    23 @      -99                            /* I = -2: 20 */
(PID.TID 0000.0001)  OB_Js = /* Southern OB local indices */
(PID.TID 0000.0001)    23 @      -99                            /* I = -2: 20 */
(PID.TID 0000.0001)  OB_Ie = /* Eastern OB local indices */
(PID.TID 0000.0001)    26 @      -99                            /* J = -2: 23 */
(PID.TID 0000.0001)  OB_Iw = /* Western OB local indices */
(PID.TID 0000.0001)    26 @      -99                            /* J = -2: 23 */
(PID.TID 0000.0001) ======== Tile bi=  14 , bj=  14 ========
(PID.TID 0000.0001)  OB_Jn = /* Northern OB local indices */
(PID.TID 0000.0001)    23 @      -99                            /* I = -2: 20 */
(PID.TID 0000.0001)  OB_Js = /* Southern OB local indices */
(PID.TID 0000.0001)    23 @      -99                            /* I = -2: 20 */
(PID.TID 0000.0001)  OB_Ie = /* Eastern OB local indices */
(PID.TID 0000.0001)    26 @      -99                            /* J = -2: 23 */
(PID.TID 0000.0001)  OB_Iw = /* Western OB local indices */
(PID.TID 0000.0001)    26 @      -99                            /* J = -2: 23 */
(PID.TID 0000.0001) ======== Tile bi=  15 , bj=  14 ========
(PID.TID 0000.0001)  OB_Jn = /* Northern OB local indices */
(PID.TID 0000.0001)    23 @      -99                            /* I = -2: 20 */
(PID.TID 0000.0001)  OB_Js = /* Southern OB local indices */
(PID.TID 0000.0001)    23 @      -99                            /* I = -2: 20 */
(PID.TID 0000.0001)  OB_Ie = /* Eastern OB local indices */
(PID.TID 0000.0001)    26 @      -99                            /* J = -2: 23 */
(PID.TID 0000.0001)  OB_Iw = /* Western OB local indices */
(PID.TID 0000.0001)    26 @      -99                            /* J = -2: 23 */
(PID.TID 0000.0001) ======== Tile bi=  16 , bj=  14 ========
(PID.TID 0000.0001)  OB_Jn = /* Northern OB local indices */
(PID.TID 0000.0001)    23 @      -99                            /* I = -2: 20 */
(PID.TID 0000.0001)  OB_Js = /* Southern OB local indices */
(PID.TID 0000.0001)    23 @      -99                            /* I = -2: 20 */
(PID.TID 0000.0001)  OB_Ie = /* Eastern OB local indices */
(PID.TID 0000.0001)    26 @      -99                            /* J = -2: 23 */
(PID.TID 0000.0001)  OB_Iw = /* Western OB local indices */
(PID.TID 0000.0001)    26 @      -99                            /* J = -2: 23 */
(PID.TID 0000.0001) ======== Tile bi=   1 , bj=  15 ========
(PID.TID 0000.0001)  OB_Jn = /* Northern OB local indices */
(PID.TID 0000.0001)    23 @      -99                            /* I = -2: 20 */
(PID.TID 0000.0001)  OB_Js = /* Southern OB local indices */
(PID.TID 0000.0001)    23 @      -99                            /* I = -2: 20 */
(PID.TID 0000.0001)  OB_Ie = /* Eastern OB local indices */
(PID.TID 0000.0001)    26 @      -99                            /* J = -2: 23 */
(PID.TID 0000.0001)  OB_Iw = /* Western OB local indices */
(PID.TID 0000.0001)    26 @      -99                            /* J = -2: 23 */
(PID.TID 0000.0001) ======== Tile bi=   2 , bj=  15 ========
(PID.TID 0000.0001)  OB_Jn = /* Northern OB local indices */
(PID.TID 0000.0001)    23 @      -99                            /* I = -2: 20 */
(PID.TID 0000.0001)  OB_Js = /* Southern OB local indices */
(PID.TID 0000.0001)    23 @      -99                            /* I = -2: 20 */
(PID.TID 0000.0001)  OB_Ie = /* Eastern OB local indices */
(PID.TID 0000.0001)    26 @      -99                            /* J = -2: 23 */
(PID.TID 0000.0001)  OB_Iw = /* Western OB local indices */
(PID.TID 0000.0001)    26 @      -99                            /* J = -2: 23 */
(PID.TID 0000.0001) ======== Tile bi=   3 , bj=  15 ========
(PID.TID 0000.0001)  OB_Jn = /* Northern OB local indices */
(PID.TID 0000.0001)    23 @      -99                            /* I = -2: 20 */
(PID.TID 0000.0001)  OB_Js = /* Southern OB local indices */
(PID.TID 0000.0001)    23 @      -99                            /* I = -2: 20 */
(PID.TID 0000.0001)  OB_Ie = /* Eastern OB local indices */
(PID.TID 0000.0001)    26 @      -99                            /* J = -2: 23 */
(PID.TID 0000.0001)  OB_Iw = /* Western OB local indices */
(PID.TID 0000.0001)    26 @      -99                            /* J = -2: 23 */
(PID.TID 0000.0001) ======== Tile bi=   4 , bj=  15 ========
(PID.TID 0000.0001)  OB_Jn = /* Northern OB local indices */
(PID.TID 0000.0001)    23 @      -99                            /* I = -2: 20 */
(PID.TID 0000.0001)  OB_Js = /* Southern OB local indices */
(PID.TID 0000.0001)    23 @      -99                            /* I = -2: 20 */
(PID.TID 0000.0001)  OB_Ie = /* Eastern OB local indices */
(PID.TID 0000.0001)    26 @      -99                            /* J = -2: 23 */
(PID.TID 0000.0001)  OB_Iw = /* Western OB local indices */
(PID.TID 0000.0001)    26 @      -99                            /* J = -2: 23 */
(PID.TID 0000.0001) ======== Tile bi=   5 , bj=  15 ========
(PID.TID 0000.0001)  OB_Jn = /* Northern OB local indices */
(PID.TID 0000.0001)    23 @      -99                            /* I = -2: 20 */
(PID.TID 0000.0001)  OB_Js = /* Southern OB local indices */
(PID.TID 0000.0001)    23 @      -99                            /* I = -2: 20 */
(PID.TID 0000.0001)  OB_Ie = /* Eastern OB local indices */
(PID.TID 0000.0001)    26 @      -99                            /* J = -2: 23 */
(PID.TID 0000.0001)  OB_Iw = /* Western OB local indices */
(PID.TID 0000.0001)    26 @      -99                            /* J = -2: 23 */
(PID.TID 0000.0001) ======== Tile bi=   6 , bj=  15 ========
(PID.TID 0000.0001)  OB_Jn = /* Northern OB local indices */
(PID.TID 0000.0001)    23 @      -99                            /* I = -2: 20 */
(PID.TID 0000.0001)  OB_Js = /* Southern OB local indices */
(PID.TID 0000.0001)    23 @      -99                            /* I = -2: 20 */
(PID.TID 0000.0001)  OB_Ie = /* Eastern OB local indices */
(PID.TID 0000.0001)    26 @      -99                            /* J = -2: 23 */
(PID.TID 0000.0001)  OB_Iw = /* Western OB local indices */
(PID.TID 0000.0001)    26 @      -99                            /* J = -2: 23 */
(PID.TID 0000.0001) ======== Tile bi=   7 , bj=  15 ========
(PID.TID 0000.0001)  OB_Jn = /* Northern OB local indices */
(PID.TID 0000.0001)    23 @      -99                            /* I = -2: 20 */
(PID.TID 0000.0001)  OB_Js = /* Southern OB local indices */
(PID.TID 0000.0001)    23 @      -99                            /* I = -2: 20 */
(PID.TID 0000.0001)  OB_Ie = /* Eastern OB local indices */
(PID.TID 0000.0001)    26 @      -99                            /* J = -2: 23 */
(PID.TID 0000.0001)  OB_Iw = /* Western OB local indices */
(PID.TID 0000.0001)    26 @      -99                            /* J = -2: 23 */
(PID.TID 0000.0001) ======== Tile bi=   8 , bj=  15 ========
(PID.TID 0000.0001)  OB_Jn = /* Northern OB local indices */
(PID.TID 0000.0001)    23 @      -99                            /* I = -2: 20 */
(PID.TID 0000.0001)  OB_Js = /* Southern OB local indices */
(PID.TID 0000.0001)    23 @      -99                            /* I = -2: 20 */
(PID.TID 0000.0001)  OB_Ie = /* Eastern OB local indices */
(PID.TID 0000.0001)    26 @      -99                            /* J = -2: 23 */
(PID.TID 0000.0001)  OB_Iw = /* Western OB local indices */
(PID.TID 0000.0001)    26 @      -99                            /* J = -2: 23 */
(PID.TID 0000.0001) ======== Tile bi=   9 , bj=  15 ========
(PID.TID 0000.0001)  OB_Jn = /* Northern OB local indices */
(PID.TID 0000.0001)    23 @      -99                            /* I = -2: 20 */
(PID.TID 0000.0001)  OB_Js = /* Southern OB local indices */
(PID.TID 0000.0001)    23 @      -99                            /* I = -2: 20 */
(PID.TID 0000.0001)  OB_Ie = /* Eastern OB local indices */
(PID.TID 0000.0001)    26 @      -99                            /* J = -2: 23 */
(PID.TID 0000.0001)  OB_Iw = /* Western OB local indices */
(PID.TID 0000.0001)    26 @      -99                            /* J = -2: 23 */
(PID.TID 0000.0001) ======== Tile bi=  10 , bj=  15 ========
(PID.TID 0000.0001)  OB_Jn = /* Northern OB local indices */
(PID.TID 0000.0001)    23 @      -99                            /* I = -2: 20 */
(PID.TID 0000.0001)  OB_Js = /* Southern OB local indices */
(PID.TID 0000.0001)    23 @      -99                            /* I = -2: 20 */
(PID.TID 0000.0001)  OB_Ie = /* Eastern OB local indices */
(PID.TID 0000.0001)    26 @      -99                            /* J = -2: 23 */
(PID.TID 0000.0001)  OB_Iw = /* Western OB local indices */
(PID.TID 0000.0001)    26 @      -99                            /* J = -2: 23 */
(PID.TID 0000.0001) ======== Tile bi=  11 , bj=  15 ========
(PID.TID 0000.0001)  OB_Jn = /* Northern OB local indices */
(PID.TID 0000.0001)    23 @      -99                            /* I = -2: 20 */
(PID.TID 0000.0001)  OB_Js = /* Southern OB local indices */
(PID.TID 0000.0001)    23 @      -99                            /* I = -2: 20 */
(PID.TID 0000.0001)  OB_Ie = /* Eastern OB local indices */
(PID.TID 0000.0001)    26 @      -99                            /* J = -2: 23 */
(PID.TID 0000.0001)  OB_Iw = /* Western OB local indices */
(PID.TID 0000.0001)    26 @      -99                            /* J = -2: 23 */
(PID.TID 0000.0001) ======== Tile bi=  12 , bj=  15 ========
(PID.TID 0000.0001)  OB_Jn = /* Northern OB local indices */
(PID.TID 0000.0001)    23 @      -99                            /* I = -2: 20 */
(PID.TID 0000.0001)  OB_Js = /* Southern OB local indices */
(PID.TID 0000.0001)    23 @      -99                            /* I = -2: 20 */
(PID.TID 0000.0001)  OB_Ie = /* Eastern OB local indices */
(PID.TID 0000.0001)    26 @      -99                            /* J = -2: 23 */
(PID.TID 0000.0001)  OB_Iw = /* Western OB local indices */
(PID.TID 0000.0001)    26 @      -99                            /* J = -2: 23 */
(PID.TID 0000.0001) ======== Tile bi=  13 , bj=  15 ========
(PID.TID 0000.0001)  OB_Jn = /* Northern OB local indices */
(PID.TID 0000.0001)    23 @      -99                            /* I = -2: 20 */
(PID.TID 0000.0001)  OB_Js = /* Southern OB local indices */
(PID.TID 0000.0001)    23 @      -99                            /* I = -2: 20 */
(PID.TID 0000.0001)  OB_Ie = /* Eastern OB local indices */
(PID.TID 0000.0001)    26 @      -99                            /* J = -2: 23 */
(PID.TID 0000.0001)  OB_Iw = /* Western OB local indices */
(PID.TID 0000.0001)    26 @      -99                            /* J = -2: 23 */
(PID.TID 0000.0001) ======== Tile bi=  14 , bj=  15 ========
(PID.TID 0000.0001)  OB_Jn = /* Northern OB local indices */
(PID.TID 0000.0001)    23 @      -99                            /* I = -2: 20 */
(PID.TID 0000.0001)  OB_Js = /* Southern OB local indices */
(PID.TID 0000.0001)    23 @      -99                            /* I = -2: 20 */
(PID.TID 0000.0001)  OB_Ie = /* Eastern OB local indices */
(PID.TID 0000.0001)    26 @      -99                            /* J = -2: 23 */
(PID.TID 0000.0001)  OB_Iw = /* Western OB local indices */
(PID.TID 0000.0001)    26 @      -99                            /* J = -2: 23 */
(PID.TID 0000.0001) ======== Tile bi=  15 , bj=  15 ========
(PID.TID 0000.0001)  OB_Jn = /* Northern OB local indices */
(PID.TID 0000.0001)    23 @      -99                            /* I = -2: 20 */
(PID.TID 0000.0001)  OB_Js = /* Southern OB local indices */
(PID.TID 0000.0001)    23 @      -99                            /* I = -2: 20 */
(PID.TID 0000.0001)  OB_Ie = /* Eastern OB local indices */
(PID.TID 0000.0001)    26 @      -99                            /* J = -2: 23 */
(PID.TID 0000.0001)  OB_Iw = /* Western OB local indices */
(PID.TID 0000.0001)    26 @      -99                            /* J = -2: 23 */
(PID.TID 0000.0001) ======== Tile bi=  16 , bj=  15 ========
(PID.TID 0000.0001)  OB_Jn = /* Northern OB local indices */
(PID.TID 0000.0001)    23 @      -99                            /* I = -2: 20 */
(PID.TID 0000.0001)  OB_Js = /* Southern OB local indices */
(PID.TID 0000.0001)    23 @      -99                            /* I = -2: 20 */
(PID.TID 0000.0001)  OB_Ie = /* Eastern OB local indices */
(PID.TID 0000.0001)    26 @      -99                            /* J = -2: 23 */
(PID.TID 0000.0001)  OB_Iw = /* Western OB local indices */
(PID.TID 0000.0001)    26 @      -99                            /* J = -2: 23 */
(PID.TID 0000.0001) ======== Tile bi=   1 , bj=  16 ========
(PID.TID 0000.0001)  OB_Jn = /* Northern OB local indices */
(PID.TID 0000.0001)    23 @      -99                            /* I = -2: 20 */
(PID.TID 0000.0001)  OB_Js = /* Southern OB local indices */
(PID.TID 0000.0001)    23 @      -99                            /* I = -2: 20 */
(PID.TID 0000.0001)  OB_Ie = /* Eastern OB local indices */
(PID.TID 0000.0001)    26 @      -99                            /* J = -2: 23 */
(PID.TID 0000.0001)  OB_Iw = /* Western OB local indices */
(PID.TID 0000.0001)    26 @      -99                            /* J = -2: 23 */
(PID.TID 0000.0001) ======== Tile bi=   2 , bj=  16 ========
(PID.TID 0000.0001)  OB_Jn = /* Northern OB local indices */
(PID.TID 0000.0001)    23 @      -99                            /* I = -2: 20 */
(PID.TID 0000.0001)  OB_Js = /* Southern OB local indices */
(PID.TID 0000.0001)    23 @      -99                            /* I = -2: 20 */
(PID.TID 0000.0001)  OB_Ie = /* Eastern OB local indices */
(PID.TID 0000.0001)    26 @      -99                            /* J = -2: 23 */
(PID.TID 0000.0001)  OB_Iw = /* Western OB local indices */
(PID.TID 0000.0001)    26 @      -99                            /* J = -2: 23 */
(PID.TID 0000.0001) ======== Tile bi=   3 , bj=  16 ========
(PID.TID 0000.0001)  OB_Jn = /* Northern OB local indices */
(PID.TID 0000.0001)    23 @      -99                            /* I = -2: 20 */
(PID.TID 0000.0001)  OB_Js = /* Southern OB local indices */
(PID.TID 0000.0001)    23 @      -99                            /* I = -2: 20 */
(PID.TID 0000.0001)  OB_Ie = /* Eastern OB local indices */
(PID.TID 0000.0001)    26 @      -99                            /* J = -2: 23 */
(PID.TID 0000.0001)  OB_Iw = /* Western OB local indices */
(PID.TID 0000.0001)    26 @      -99                            /* J = -2: 23 */
(PID.TID 0000.0001) ======== Tile bi=   4 , bj=  16 ========
(PID.TID 0000.0001)  OB_Jn = /* Northern OB local indices */
(PID.TID 0000.0001)    23 @      -99                            /* I = -2: 20 */
(PID.TID 0000.0001)  OB_Js = /* Southern OB local indices */
(PID.TID 0000.0001)    23 @      -99                            /* I = -2: 20 */
(PID.TID 0000.0001)  OB_Ie = /* Eastern OB local indices */
(PID.TID 0000.0001)    26 @      -99                            /* J = -2: 23 */
(PID.TID 0000.0001)  OB_Iw = /* Western OB local indices */
(PID.TID 0000.0001)    26 @      -99                            /* J = -2: 23 */
(PID.TID 0000.0001) ======== Tile bi=   5 , bj=  16 ========
(PID.TID 0000.0001)  OB_Jn = /* Northern OB local indices */
(PID.TID 0000.0001)    23 @      -99                            /* I = -2: 20 */
(PID.TID 0000.0001)  OB_Js = /* Southern OB local indices */
(PID.TID 0000.0001)    23 @      -99                            /* I = -2: 20 */
(PID.TID 0000.0001)  OB_Ie = /* Eastern OB local indices */
(PID.TID 0000.0001)    26 @      -99                            /* J = -2: 23 */
(PID.TID 0000.0001)  OB_Iw = /* Western OB local indices */
(PID.TID 0000.0001)    26 @      -99                            /* J = -2: 23 */
(PID.TID 0000.0001) ======== Tile bi=   6 , bj=  16 ========
(PID.TID 0000.0001)  OB_Jn = /* Northern OB local indices */
(PID.TID 0000.0001)    23 @      -99                            /* I = -2: 20 */
(PID.TID 0000.0001)  OB_Js = /* Southern OB local indices */
(PID.TID 0000.0001)    23 @      -99                            /* I = -2: 20 */
(PID.TID 0000.0001)  OB_Ie = /* Eastern OB local indices */
(PID.TID 0000.0001)    26 @      -99                            /* J = -2: 23 */
(PID.TID 0000.0001)  OB_Iw = /* Western OB local indices */
(PID.TID 0000.0001)    26 @      -99                            /* J = -2: 23 */
(PID.TID 0000.0001) ======== Tile bi=   7 , bj=  16 ========
(PID.TID 0000.0001)  OB_Jn = /* Northern OB local indices */
(PID.TID 0000.0001)    23 @      -99                            /* I = -2: 20 */
(PID.TID 0000.0001)  OB_Js = /* Southern OB local indices */
(PID.TID 0000.0001)    23 @      -99                            /* I = -2: 20 */
(PID.TID 0000.0001)  OB_Ie = /* Eastern OB local indices */
(PID.TID 0000.0001)    26 @      -99                            /* J = -2: 23 */
(PID.TID 0000.0001)  OB_Iw = /* Western OB local indices */
(PID.TID 0000.0001)    26 @      -99                            /* J = -2: 23 */
(PID.TID 0000.0001) ======== Tile bi=   8 , bj=  16 ========
(PID.TID 0000.0001)  OB_Jn = /* Northern OB local indices */
(PID.TID 0000.0001)    23 @      -99                            /* I = -2: 20 */
(PID.TID 0000.0001)  OB_Js = /* Southern OB local indices */
(PID.TID 0000.0001)    23 @      -99                            /* I = -2: 20 */
(PID.TID 0000.0001)  OB_Ie = /* Eastern OB local indices */
(PID.TID 0000.0001)    26 @      -99                            /* J = -2: 23 */
(PID.TID 0000.0001)  OB_Iw = /* Western OB local indices */
(PID.TID 0000.0001)    26 @      -99                            /* J = -2: 23 */
(PID.TID 0000.0001) ======== Tile bi=   9 , bj=  16 ========
(PID.TID 0000.0001)  OB_Jn = /* Northern OB local indices */
(PID.TID 0000.0001)    23 @      -99                            /* I = -2: 20 */
(PID.TID 0000.0001)  OB_Js = /* Southern OB local indices */
(PID.TID 0000.0001)    23 @      -99                            /* I = -2: 20 */
(PID.TID 0000.0001)  OB_Ie = /* Eastern OB local indices */
(PID.TID 0000.0001)    26 @      -99                            /* J = -2: 23 */
(PID.TID 0000.0001)  OB_Iw = /* Western OB local indices */
(PID.TID 0000.0001)    26 @      -99                            /* J = -2: 23 */
(PID.TID 0000.0001) ======== Tile bi=  10 , bj=  16 ========
(PID.TID 0000.0001)  OB_Jn = /* Northern OB local indices */
(PID.TID 0000.0001)    23 @      -99                            /* I = -2: 20 */
(PID.TID 0000.0001)  OB_Js = /* Southern OB local indices */
(PID.TID 0000.0001)    23 @      -99                            /* I = -2: 20 */
(PID.TID 0000.0001)  OB_Ie = /* Eastern OB local indices */
(PID.TID 0000.0001)    26 @      -99                            /* J = -2: 23 */
(PID.TID 0000.0001)  OB_Iw = /* Western OB local indices */
(PID.TID 0000.0001)    26 @      -99                            /* J = -2: 23 */
(PID.TID 0000.0001) ======== Tile bi=  11 , bj=  16 ========
(PID.TID 0000.0001)  OB_Jn = /* Northern OB local indices */
(PID.TID 0000.0001)    23 @      -99                            /* I = -2: 20 */
(PID.TID 0000.0001)  OB_Js = /* Southern OB local indices */
(PID.TID 0000.0001)    23 @      -99                            /* I = -2: 20 */
(PID.TID 0000.0001)  OB_Ie = /* Eastern OB local indices */
(PID.TID 0000.0001)    26 @      -99                            /* J = -2: 23 */
(PID.TID 0000.0001)  OB_Iw = /* Western OB local indices */
(PID.TID 0000.0001)    26 @      -99                            /* J = -2: 23 */
(PID.TID 0000.0001) ======== Tile bi=  12 , bj=  16 ========
(PID.TID 0000.0001)  OB_Jn = /* Northern OB local indices */
(PID.TID 0000.0001)    23 @      -99                            /* I = -2: 20 */
(PID.TID 0000.0001)  OB_Js = /* Southern OB local indices */
(PID.TID 0000.0001)    23 @      -99                            /* I = -2: 20 */
(PID.TID 0000.0001)  OB_Ie = /* Eastern OB local indices */
(PID.TID 0000.0001)    26 @      -99                            /* J = -2: 23 */
(PID.TID 0000.0001)  OB_Iw = /* Western OB local indices */
(PID.TID 0000.0001)    26 @      -99                            /* J = -2: 23 */
(PID.TID 0000.0001) ======== Tile bi=  13 , bj=  16 ========
(PID.TID 0000.0001)  OB_Jn = /* Northern OB local indices */
(PID.TID 0000.0001)    23 @      -99                            /* I = -2: 20 */
(PID.TID 0000.0001)  OB_Js = /* Southern OB local indices */
(PID.TID 0000.0001)    23 @      -99                            /* I = -2: 20 */
(PID.TID 0000.0001)  OB_Ie = /* Eastern OB local indices */
(PID.TID 0000.0001)    26 @      -99                            /* J = -2: 23 */
(PID.TID 0000.0001)  OB_Iw = /* Western OB local indices */
(PID.TID 0000.0001)    26 @      -99                            /* J = -2: 23 */
(PID.TID 0000.0001) ======== Tile bi=  14 , bj=  16 ========
(PID.TID 0000.0001)  OB_Jn = /* Northern OB local indices */
(PID.TID 0000.0001)    23 @      -99                            /* I = -2: 20 */
(PID.TID 0000.0001)  OB_Js = /* Southern OB local indices */
(PID.TID 0000.0001)    23 @      -99                            /* I = -2: 20 */
(PID.TID 0000.0001)  OB_Ie = /* Eastern OB local indices */
(PID.TID 0000.0001)    26 @      -99                            /* J = -2: 23 */
(PID.TID 0000.0001)  OB_Iw = /* Western OB local indices */
(PID.TID 0000.0001)    26 @      -99                            /* J = -2: 23 */
(PID.TID 0000.0001) ======== Tile bi=  15 , bj=  16 ========
(PID.TID 0000.0001)  OB_Jn = /* Northern OB local indices */
(PID.TID 0000.0001)    23 @      -99                            /* I = -2: 20 */
(PID.TID 0000.0001)  OB_Js = /* Southern OB local indices */
(PID.TID 0000.0001)    23 @      -99                            /* I = -2: 20 */
(PID.TID 0000.0001)  OB_Ie = /* Eastern OB local indices */
(PID.TID 0000.0001)    26 @      -99                            /* J = -2: 23 */
(PID.TID 0000.0001)  OB_Iw = /* Western OB local indices */
(PID.TID 0000.0001)    26 @      -99                            /* J = -2: 23 */
(PID.TID 0000.0001) ======== Tile bi=  16 , bj=  16 ========
(PID.TID 0000.0001)  OB_Jn = /* Northern OB local indices */
(PID.TID 0000.0001)    23 @      -99                            /* I = -2: 20 */
(PID.TID 0000.0001)  OB_Js = /* Southern OB local indices */
(PID.TID 0000.0001)    23 @      -99                            /* I = -2: 20 */
(PID.TID 0000.0001)  OB_Ie = /* Eastern OB local indices */
(PID.TID 0000.0001)    26 @      -99                            /* J = -2: 23 */
(PID.TID 0000.0001)  OB_Iw = /* Western OB local indices */
(PID.TID 0000.0001)    26 @      -99                            /* J = -2: 23 */
(PID.TID 0000.0001) // =======================================================
(PID.TID 0000.0001) // End of OBCS config. summary
(PID.TID 0000.0001) // =======================================================
(PID.TID 0000.0001) 
(PID.TID 0000.0001) OBCS_CHECK: #define ALLOW_ORLANSKI
(PID.TID 0000.0001) OBCS_CHECK: set-up OK
(PID.TID 0000.0001) OBCS_CHECK: check Inside Mask and OB locations: OK
(PID.TID 0000.0001) 
(PID.TID 0000.0001) GAD_CHECK: #define ALLOW_GENERIC_ADVDIFF
(PID.TID 0000.0001) // =======================================================
(PID.TID 0000.0001) // Check Model config. (CONFIG_CHECK):
(PID.TID 0000.0001) // CONFIG_CHECK : Normal End
(PID.TID 0000.0001) // =======================================================
(PID.TID 0000.0001) 
(PID.TID 0000.0001)  MDS_READ_FIELD: opening global file: ../input/feb_temp_40zlev_272x320.bin
(PID.TID 0000.0001)  MDS_READ_FIELD: opening global file: ../input/feb_salt_40zlev_272x320.bin
(PID.TID 0000.0001) Start initial hydrostatic pressure computation
(PID.TID 0000.0001) Pressure is predetermined for buoyancyRelation OCEANIC
(PID.TID 0000.0001) 
(PID.TID 0000.0001)  MDS_READ_FIELD: opening global file: ../input/merid_halfgauss2p5hr_272x320.bin
(PID.TID 0000.0001) // =======================================================
(PID.TID 0000.0001) // Model current state
(PID.TID 0000.0001) // =======================================================
(PID.TID 0000.0001) 
(PID.TID 0000.0001) // =======================================================
(PID.TID 0000.0001) // Begin MONITOR dynamic field statistics
(PID.TID 0000.0001) // =======================================================
(PID.TID 0000.0001) %MON time_tsnumber                =                     0
(PID.TID 0000.0001) %MON time_secondsf                =   0.0000000000000E+00
(PID.TID 0000.0001) %MON dynstat_eta_max              =   0.0000000000000E+00
(PID.TID 0000.0001) %MON dynstat_eta_min              =   0.0000000000000E+00
(PID.TID 0000.0001) %MON dynstat_eta_mean             =   0.0000000000000E+00
(PID.TID 0000.0001) %MON dynstat_eta_sd               =   0.0000000000000E+00
(PID.TID 0000.0001) %MON dynstat_eta_del2             =   0.0000000000000E+00
(PID.TID 0000.0001) %MON dynstat_uvel_max             =   0.0000000000000E+00
(PID.TID 0000.0001) %MON dynstat_uvel_min             =   0.0000000000000E+00
(PID.TID 0000.0001) %MON dynstat_uvel_mean            =   0.0000000000000E+00
(PID.TID 0000.0001) %MON dynstat_uvel_sd              =   0.0000000000000E+00
(PID.TID 0000.0001) %MON dynstat_uvel_del2            =   0.0000000000000E+00
(PID.TID 0000.0001) %MON dynstat_vvel_max             =   0.0000000000000E+00
(PID.TID 0000.0001) %MON dynstat_vvel_min             =   0.0000000000000E+00
(PID.TID 0000.0001) %MON dynstat_vvel_mean            =   0.0000000000000E+00
(PID.TID 0000.0001) %MON dynstat_vvel_sd              =   0.0000000000000E+00
(PID.TID 0000.0001) %MON dynstat_vvel_del2            =   0.0000000000000E+00
(PID.TID 0000.0001) %MON dynstat_wvel_max             =  -0.0000000000000E+00
(PID.TID 0000.0001) %MON dynstat_wvel_min             =  -0.0000000000000E+00
(PID.TID 0000.0001) %MON dynstat_wvel_mean            =   0.0000000000000E+00
(PID.TID 0000.0001) %MON dynstat_wvel_sd              =   0.0000000000000E+00
(PID.TID 0000.0001) %MON dynstat_wvel_del2            =   0.0000000000000E+00
(PID.TID 0000.0001) %MON dynstat_theta_max            =   1.6580000000000E+01
(PID.TID 0000.0001) %MON dynstat_theta_min            =   4.1845842696629E+00
(PID.TID 0000.0001) %MON dynstat_theta_mean           =   7.5988672903155E+00
(PID.TID 0000.0001) %MON dynstat_theta_sd             =   3.5909227910373E+00
(PID.TID 0000.0001) %MON dynstat_theta_del2           =   0.0000000000000E+00
(PID.TID 0000.0001) %MON dynstat_salt_max             =   3.4476101123596E+01
(PID.TID 0000.0001) %MON dynstat_salt_min             =   3.3630000000000E+01
(PID.TID 0000.0001) %MON dynstat_salt_mean            =   3.4188927783377E+01
(PID.TID 0000.0001) %MON dynstat_salt_sd              =   2.7007373855834E-01
(PID.TID 0000.0001) %MON dynstat_salt_del2            =   0.0000000000000E+00
(PID.TID 0000.0001) %MON trAdv_CFL_u_max              =   0.0000000000000E+00
(PID.TID 0000.0001) %MON trAdv_CFL_v_max              =   0.0000000000000E+00
(PID.TID 0000.0001) %MON trAdv_CFL_w_max              =   0.0000000000000E+00
(PID.TID 0000.0001) %MON advcfl_uvel_max              =   0.0000000000000E+00
(PID.TID 0000.0001) %MON advcfl_vvel_max              =   0.0000000000000E+00
(PID.TID 0000.0001) %MON advcfl_wvel_max              =   0.0000000000000E+00
(PID.TID 0000.0001) %MON advcfl_W_hf_max              =   0.0000000000000E+00
(PID.TID 0000.0001) %MON pe_b_mean                    =   0.0000000000000E+00
(PID.TID 0000.0001) %MON ke_max                       =   0.0000000000000E+00
(PID.TID 0000.0001) %MON ke_mean                      =   0.0000000000000E+00
(PID.TID 0000.0001) %MON ke_vol                       =   8.2635254160858E+14
(PID.TID 0000.0001) %MON vort_r_min                   =   0.0000000000000E+00
(PID.TID 0000.0001) %MON vort_r_max                   =   0.0000000000000E+00
(PID.TID 0000.0001) %MON vort_a_mean                  =   6.9142466381008E-04
(PID.TID 0000.0001) %MON vort_a_sd                    =   1.4187176948787E-06
(PID.TID 0000.0001) %MON vort_p_mean                  =   6.9569812303954E-04
(PID.TID 0000.0001) %MON vort_p_sd                    =   9.4064824848744E-05
(PID.TID 0000.0001) %MON surfExpan_theta_mean         =   0.0000000000000E+00
(PID.TID 0000.0001) %MON surfExpan_salt_mean          =   0.0000000000000E+00
(PID.TID 0000.0001) // =======================================================
(PID.TID 0000.0001) // End MONITOR dynamic field statistics
(PID.TID 0000.0001) // =======================================================
(PID.TID 0000.0001) // =======================================================
(PID.TID 0000.0001) // Begin OBCS MONITOR field statistics
(PID.TID 0000.0001) // =======================================================
(PID.TID 0000.0001) %MON obc_S_vVel_max               =   0.0000000000000E+00
(PID.TID 0000.0001) %MON obc_S_vVel_min               =   0.0000000000000E+00
(PID.TID 0000.0001) %MON obc_S_vVel_mean              =   0.0000000000000E+00
(PID.TID 0000.0001) %MON obc_S_vVel_sd                =   0.0000000000000E+00
(PID.TID 0000.0001) %MON obc_S_vVel_Int               =   0.0000000000000E+00
(PID.TID 0000.0001) // =======================================================
(PID.TID 0000.0001) // End OBCS MONITOR field statistics
(PID.TID 0000.0001) // =======================================================
 EXTERNAL_FIELDS_LOAD,         0 : iP,iLd,i0,i1=   60    0   60    1 ; Wght=  0.5000000000  0.5000000000
 EXTERNAL_FIELDS_LOAD, it=         0 : Reading new data, i0,i1=   60    1 (prev=   60    0 )
(PID.TID 0000.0001)  MDS_READ_FIELD: opening global file: ../input/merid_halfgauss2p5hr_272x320.bin
(PID.TID 0000.0001)  MDS_READ_FIELD: opening global file: ../input/merid_halfgauss2p5hr_272x320.bin
(PID.TID 0000.0001) SOLVE_FOR_PRESSURE: putPmEinXvector =    F
 cg2d: Sum(rhs),rhsMax =   0.00000000000000E+00  4.41522676649703E-06
 EXTERNAL_FIELDS_LOAD,         1 : iP,iLd,i0,i1=   60    1   60    1 ; Wght=  0.4500000000  0.5500000000
 cg2d: Sum(rhs),rhsMax =  -2.13162820728030E-14  1.35998236737068E-05
 EXTERNAL_FIELDS_LOAD,         2 : iP,iLd,i0,i1=   60    1   60    1 ; Wght=  0.4000000000  0.6000000000
 cg2d: Sum(rhs),rhsMax =   5.32907051820075E-15  2.75141922550141E-05
 EXTERNAL_FIELDS_LOAD,         3 : iP,iLd,i0,i1=   60    1   60    1 ; Wght=  0.3500000000  0.6500000000
 cg2d: Sum(rhs),rhsMax =  -3.55271367880050E-15  4.59839654633403E-05
 EXTERNAL_FIELDS_LOAD,         4 : iP,iLd,i0,i1=   60    1   60    1 ; Wght=  0.3000000000  0.7000000000
 cg2d: Sum(rhs),rhsMax =   3.73034936274053E-14  6.87224246059428E-05
 EXTERNAL_FIELDS_LOAD,         5 : iP,iLd,i0,i1=   60    1   60    1 ; Wght=  0.2500000000  0.7500000000
 cg2d: Sum(rhs),rhsMax =  -1.24344978758018E-14  9.53547384111811E-05
 EXTERNAL_FIELDS_LOAD,         6 : iP,iLd,i0,i1=   60    1   60    1 ; Wght=  0.2000000000  0.8000000000
 cg2d: Sum(rhs),rhsMax =   8.88178419700125E-15  1.25441352309637E-04
 EXTERNAL_FIELDS_LOAD,         7 : iP,iLd,i0,i1=   60    1   60    1 ; Wght=  0.1500000000  0.8500000000
 cg2d: Sum(rhs),rhsMax =   4.26325641456060E-14  1.58499255150771E-04
 EXTERNAL_FIELDS_LOAD,         8 : iP,iLd,i0,i1=   60    1   60    1 ; Wght=  0.1000000000  0.9000000000
 cg2d: Sum(rhs),rhsMax =   0.00000000000000E+00  1.94020446681123E-04
 EXTERNAL_FIELDS_LOAD,         9 : iP,iLd,i0,i1=   60    1   60    1 ; Wght=  0.0500000000  0.9500000000
 cg2d: Sum(rhs),rhsMax =  -1.06581410364015E-14  2.31487360823718E-04
 EXTERNAL_FIELDS_LOAD,        10 : iP,iLd,i0,i1=   60    1    1    2 ; Wght=  1.0000000000  0.0000000000
 EXTERNAL_FIELDS_LOAD, it=        10 : Reading new data, i0,i1=    1    2 (prev=   60    1 )
(PID.TID 0000.0001)  MDS_READ_FIELD: opening global file: ../input/merid_halfgauss2p5hr_272x320.bin
(PID.TID 0000.0001)  MDS_READ_FIELD: opening global file: ../input/merid_halfgauss2p5hr_272x320.bin
 cg2d: Sum(rhs),rhsMax =  -3.55271367880050E-15  2.70385330146940E-04
 EXTERNAL_FIELDS_LOAD,        11 : iP,iLd,i0,i1=    1    2    1    2 ; Wght=  0.9500000000  0.0500000000
 cg2d: Sum(rhs),rhsMax =  -1.95399252334028E-14  3.10348010952759E-04
 EXTERNAL_FIELDS_LOAD,        12 : iP,iLd,i0,i1=    1    2    1    2 ; Wght=  0.9000000000  0.1000000000
 cg2d: Sum(rhs),rhsMax =   3.73034936274053E-14  3.50973985888193E-04
 EXTERNAL_FIELDS_LOAD,        13 : iP,iLd,i0,i1=    1    2    1    2 ; Wght=  0.8500000000  0.1500000000
 cg2d: Sum(rhs),rhsMax =  -4.97379915032070E-14  3.91877962201332E-04
 EXTERNAL_FIELDS_LOAD,        14 : iP,iLd,i0,i1=    1    2    1    2 ; Wght=  0.8000000000  0.2000000000
 cg2d: Sum(rhs),rhsMax =   6.39488462184090E-14  4.32694038913942E-04
 EXTERNAL_FIELDS_LOAD,        15 : iP,iLd,i0,i1=    1    2    1    2 ; Wght=  0.7500000000  0.2500000000
 cg2d: Sum(rhs),rhsMax =   0.00000000000000E+00  4.73078627486367E-04
 EXTERNAL_FIELDS_LOAD,        16 : iP,iLd,i0,i1=    1    2    1    2 ; Wght=  0.7000000000  0.3000000000
 cg2d: Sum(rhs),rhsMax =  -2.84217094304040E-14  5.12713377228687E-04
 EXTERNAL_FIELDS_LOAD,        17 : iP,iLd,i0,i1=    1    2    1    2 ; Wght=  0.6500000000  0.3500000000
 cg2d: Sum(rhs),rhsMax =  -3.55271367880050E-15  5.51308191973948E-04
 EXTERNAL_FIELDS_LOAD,        18 : iP,iLd,i0,i1=    1    2    1    2 ; Wght=  0.6000000000  0.4000000000
 cg2d: Sum(rhs),rhsMax =   1.06581410364015E-14  5.88604325467960E-04
 EXTERNAL_FIELDS_LOAD,        19 : iP,iLd,i0,i1=    1    2    1    2 ; Wght=  0.5500000000  0.4500000000
 cg2d: Sum(rhs),rhsMax =   4.97379915032070E-14  6.24377452394628E-04
(PID.TID 0000.0001)      cg2d_init_res =   2.96112123219603E-01
(PID.TID 0000.0001)      cg2d_iters(min,last) =      -1      32
(PID.TID 0000.0001)      cg2d_last_res =   8.44750120193935E-08
(PID.TID 0000.0001) // =======================================================
(PID.TID 0000.0001) // Begin MONITOR dynamic field statistics
(PID.TID 0000.0001) // =======================================================
(PID.TID 0000.0001) %MON time_tsnumber                =                    20
(PID.TID 0000.0001) %MON time_secondsf                =   1.2000000000000E+03
(PID.TID 0000.0001) %MON dynstat_eta_max              =   5.4380952825535E-04
(PID.TID 0000.0001) %MON dynstat_eta_min              =  -5.2383920408115E-05
(PID.TID 0000.0001) %MON dynstat_eta_mean             =   4.0458134430918E-21
(PID.TID 0000.0001) %MON dynstat_eta_sd               =   3.9691067159446E-05
(PID.TID 0000.0001) %MON dynstat_eta_del2             =   6.3217021644347E-08
(PID.TID 0000.0001) %MON dynstat_uvel_max             =   8.7539909387724E-04
(PID.TID 0000.0001) %MON dynstat_uvel_min             =  -1.4361670313614E-04
(PID.TID 0000.0001) %MON dynstat_uvel_mean            =   1.6549867479379E-06
(PID.TID 0000.0001) %MON dynstat_uvel_sd              =   3.9739145727983E-05
(PID.TID 0000.0001) %MON dynstat_uvel_del2            =   2.5567769333496E-09
(PID.TID 0000.0001) %MON dynstat_vvel_max             =   2.4923747487721E-03
(PID.TID 0000.0001) %MON dynstat_vvel_min             =  -9.4114426656351E-04
(PID.TID 0000.0001) %MON dynstat_vvel_mean            =   4.4523773252713E-06
(PID.TID 0000.0001) %MON dynstat_vvel_sd              =   1.1304431097584E-04
(PID.TID 0000.0001) %MON dynstat_vvel_del2            =   6.8476332433684E-09
(PID.TID 0000.0001) %MON dynstat_wvel_max             =   6.4018808443644E-07
(PID.TID 0000.0001) %MON dynstat_wvel_min             =  -1.2496579020071E-06
(PID.TID 0000.0001) %MON dynstat_wvel_mean            =  -4.0484618522221E-09
(PID.TID 0000.0001) %MON dynstat_wvel_sd              =   2.8340775440084E-08
(PID.TID 0000.0001) %MON dynstat_wvel_del2            =   4.1930168321307E-11
(PID.TID 0000.0001) %MON dynstat_theta_max            =   1.6579971079430E+01
(PID.TID 0000.0001) %MON dynstat_theta_min            =   4.1845846372074E+00
(PID.TID 0000.0001) %MON dynstat_theta_mean           =   7.5988673179623E+00
(PID.TID 0000.0001) %MON dynstat_theta_sd             =   3.5909215610086E+00
(PID.TID 0000.0001) %MON dynstat_theta_del2           =   1.0121181904646E-09
(PID.TID 0000.0001) %MON dynstat_salt_max             =   3.4476101086134E+01
(PID.TID 0000.0001) %MON dynstat_salt_min             =   3.3630000000000E+01
(PID.TID 0000.0001) %MON dynstat_salt_mean            =   3.4188927781645E+01
(PID.TID 0000.0001) %MON dynstat_salt_sd              =   2.7007367674377E-01
(PID.TID 0000.0001) %MON dynstat_salt_del2            =   5.0343564280243E-11
(PID.TID 0000.0001) %MON trAdv_CFL_u_max              =   2.3278628569959E-05
(PID.TID 0000.0001) %MON trAdv_CFL_v_max              =   6.9190849277775E-05
(PID.TID 0000.0001) %MON trAdv_CFL_w_max              =   4.4098459181318E-05
(PID.TID 0000.0001) %MON advcfl_uvel_max              =   2.6206938245914E-05
(PID.TID 0000.0001) %MON advcfl_vvel_max              =   7.4421461593673E-05
(PID.TID 0000.0001) %MON advcfl_wvel_max              =   3.2599771356706E-05
(PID.TID 0000.0001) %MON advcfl_W_hf_max              =   3.4081579145648E-05
(PID.TID 0000.0001) %MON pe_b_mean                    =   8.0720666806004E-12
(PID.TID 0000.0001) %MON ke_max                       =   3.6527938123179E-06
(PID.TID 0000.0001) %MON ke_mean                      =   7.1838001929086E-09
(PID.TID 0000.0001) %MON ke_vol                       =   8.2635254160858E+14
(PID.TID 0000.0001) %MON vort_r_min                   =  -1.9336943550060E-07
(PID.TID 0000.0001) %MON vort_r_max                   =   2.0261707764173E-07
(PID.TID 0000.0001) %MON vort_a_mean                  =   6.9142466381008E-04
(PID.TID 0000.0001) %MON vort_a_sd                    =   1.4187296874739E-06
(PID.TID 0000.0001) %MON vort_p_mean                  =   6.9569812303954E-04
(PID.TID 0000.0001) %MON vort_p_sd                    =   9.4064800932649E-05
(PID.TID 0000.0001) %MON surfExpan_theta_mean         =   1.5908165851765E-15
(PID.TID 0000.0001) %MON surfExpan_salt_mean          =   4.5515401234783E-22
(PID.TID 0000.0001) // =======================================================
(PID.TID 0000.0001) // End MONITOR dynamic field statistics
(PID.TID 0000.0001) // =======================================================
(PID.TID 0000.0001) // =======================================================
(PID.TID 0000.0001) // Begin OBCS MONITOR field statistics
(PID.TID 0000.0001) // =======================================================
(PID.TID 0000.0001) %MON obc_S_vVel_max               =   1.7847241085556E-03
(PID.TID 0000.0001) %MON obc_S_vVel_min               =  -3.9282694907561E-06
(PID.TID 0000.0001) %MON obc_S_vVel_mean              =  -9.5133951756749E-23
(PID.TID 0000.0001) %MON obc_S_vVel_sd                =   7.9895770885921E-05
(PID.TID 0000.0001) %MON obc_S_vVel_Int               =  -1.6153745008296E-13
(PID.TID 0000.0001) // =======================================================
(PID.TID 0000.0001) // End OBCS MONITOR field statistics
(PID.TID 0000.0001) // =======================================================
 EXTERNAL_FIELDS_LOAD,        20 : iP,iLd,i0,i1=    1    2    1    2 ; Wght=  0.5000000000  0.5000000000
 cg2d: Sum(rhs),rhsMax =  -7.10542735760100E-14  6.58440550166816E-04
 EXTERNAL_FIELDS_LOAD,        21 : iP,iLd,i0,i1=    1    2    1    2 ; Wght=  0.4500000000  0.5500000000
 cg2d: Sum(rhs),rhsMax =  -1.31450406115619E-13  6.90646395080605E-04
 EXTERNAL_FIELDS_LOAD,        22 : iP,iLd,i0,i1=    1    2    1    2 ; Wght=  0.4000000000  0.6000000000
 cg2d: Sum(rhs),rhsMax =  -2.48689957516035E-14  7.20889473565980E-04
 EXTERNAL_FIELDS_LOAD,        23 : iP,iLd,i0,i1=    1    2    1    2 ; Wght=  0.3500000000  0.6500000000
 cg2d: Sum(rhs),rhsMax =   0.00000000000000E+00  7.49107131055007E-04
 EXTERNAL_FIELDS_LOAD,        24 : iP,iLd,i0,i1=    1    2    1    2 ; Wght=  0.3000000000  0.7000000000
 cg2d: Sum(rhs),rhsMax =  -3.55271367880050E-14  7.75279821699768E-04
 EXTERNAL_FIELDS_LOAD,        25 : iP,iLd,i0,i1=    1    2    1    2 ; Wght=  0.2500000000  0.7500000000
 cg2d: Sum(rhs),rhsMax =  -2.84217094304040E-14  7.99430375152354E-04
 EXTERNAL_FIELDS_LOAD,        26 : iP,iLd,i0,i1=    1    2    1    2 ; Wght=  0.2000000000  0.8000000000
 cg2d: Sum(rhs),rhsMax =  -6.39488462184090E-14  8.21622255072481E-04
 EXTERNAL_FIELDS_LOAD,        27 : iP,iLd,i0,i1=    1    2    1    2 ; Wght=  0.1500000000  0.8500000000
 cg2d: Sum(rhs),rhsMax =  -4.97379915032070E-14  8.41956841712494E-04
 EXTERNAL_FIELDS_LOAD,        28 : iP,iLd,i0,i1=    1    2    1    2 ; Wght=  0.1000000000  0.9000000000
 cg2d: Sum(rhs),rhsMax =   3.90798504668055E-14  8.60569822693556E-04
 EXTERNAL_FIELDS_LOAD,        29 : iP,iLd,i0,i1=    1    2    1    2 ; Wght=  0.0500000000  0.9500000000
 cg2d: Sum(rhs),rhsMax =   2.84217094304040E-14  8.77626818208943E-04
 EXTERNAL_FIELDS_LOAD,        30 : iP,iLd,i0,i1=    1    2    2    3 ; Wght=  1.0000000000  0.0000000000
 EXTERNAL_FIELDS_LOAD, it=        30 : Reading new data, i0,i1=    2    3 (prev=    1    2 )
(PID.TID 0000.0001)  MDS_READ_FIELD: opening global file: ../input/merid_halfgauss2p5hr_272x320.bin
(PID.TID 0000.0001)  MDS_READ_FIELD: opening global file: ../input/merid_halfgauss2p5hr_272x320.bin
 cg2d: Sum(rhs),rhsMax =   3.55271367880050E-15  8.93318397207344E-04
 EXTERNAL_FIELDS_LOAD,        31 : iP,iLd,i0,i1=    2    3    2    3 ; Wght=  0.9500000000  0.0500000000
 cg2d: Sum(rhs),rhsMax =  -7.10542735760100E-15  9.08468791769405E-04
 EXTERNAL_FIELDS_LOAD,        32 : iP,iLd,i0,i1=    2    3    2    3 ; Wght=  0.9000000000  0.1000000000
 cg2d: Sum(rhs),rhsMax =   3.55271367880050E-14  9.23665304623063E-04
 EXTERNAL_FIELDS_LOAD,        33 : iP,iLd,i0,i1=    2    3    2    3 ; Wght=  0.8500000000  0.1500000000
 cg2d: Sum(rhs),rhsMax =  -9.59232693276135E-14  9.39457707017834E-04
 EXTERNAL_FIELDS_LOAD,        34 : iP,iLd,i0,i1=    2    3    2    3 ; Wght=  0.8000000000  0.2000000000
 cg2d: Sum(rhs),rhsMax =   1.35003119794419E-13  9.56346433605134E-04
 EXTERNAL_FIELDS_LOAD,        35 : iP,iLd,i0,i1=    2    3    2    3 ; Wght=  0.7500000000  0.2500000000
 cg2d: Sum(rhs),rhsMax =   1.24344978758018E-13  9.74773340781606E-04
 EXTERNAL_FIELDS_LOAD,        36 : iP,iLd,i0,i1=    2    3    2    3 ; Wght=  0.7000000000  0.3000000000
 cg2d: Sum(rhs),rhsMax =   3.55271367880050E-14  9.95115397516023E-04
 EXTERNAL_FIELDS_LOAD,        37 : iP,iLd,i0,i1=    2    3    2    3 ; Wght=  0.6500000000  0.3500000000
 cg2d: Sum(rhs),rhsMax =  -2.09610107049230E-13  1.01768093681177E-03
 EXTERNAL_FIELDS_LOAD,        38 : iP,iLd,i0,i1=    2    3    2    3 ; Wght=  0.6000000000  0.4000000000
 cg2d: Sum(rhs),rhsMax =  -2.48689957516035E-14  1.04270810499412E-03
 EXTERNAL_FIELDS_LOAD,        39 : iP,iLd,i0,i1=    2    3    2    3 ; Wght=  0.5500000000  0.4500000000
 cg2d: Sum(rhs),rhsMax =   2.13162820728030E-13  1.07036513290746E-03
(PID.TID 0000.0001)      cg2d_init_res =   2.31227144514148E-01
(PID.TID 0000.0001)      cg2d_iters(min,last) =      -1      32
(PID.TID 0000.0001)      cg2d_last_res =   7.01164102058829E-08
(PID.TID 0000.0001) // =======================================================
(PID.TID 0000.0001) // Begin MONITOR dynamic field statistics
(PID.TID 0000.0001) // =======================================================
(PID.TID 0000.0001) %MON time_tsnumber                =                    40
(PID.TID 0000.0001) %MON time_secondsf                =   2.4000000000000E+03
(PID.TID 0000.0001) %MON dynstat_eta_max              =   9.3392456658227E-04
(PID.TID 0000.0001) %MON dynstat_eta_min              =  -1.5543775737082E-04
(PID.TID 0000.0001) %MON dynstat_eta_mean             =   2.6432647828200E-20
(PID.TID 0000.0001) %MON dynstat_eta_sd               =   9.1819077840338E-05
(PID.TID 0000.0001) %MON dynstat_eta_del2             =   1.0236418774044E-07
(PID.TID 0000.0001) %MON dynstat_uvel_max             =   4.5350590423564E-03
(PID.TID 0000.0001) %MON dynstat_uvel_min             =  -1.1522654733731E-03
(PID.TID 0000.0001) %MON dynstat_uvel_mean            =   7.3603439783143E-06
(PID.TID 0000.0001) %MON dynstat_uvel_sd              =   2.0617187132419E-04
(PID.TID 0000.0001) %MON dynstat_uvel_del2            =   1.2547125931886E-08
(PID.TID 0000.0001) %MON dynstat_vvel_max             =   6.6969795593148E-03
(PID.TID 0000.0001) %MON dynstat_vvel_min             =  -3.1040173466435E-03
(PID.TID 0000.0001) %MON dynstat_vvel_mean            =   9.1700057865307E-06
(PID.TID 0000.0001) %MON dynstat_vvel_sd              =   2.9958384405722E-04
(PID.TID 0000.0001) %MON dynstat_vvel_del2            =   2.0297586954631E-08
(PID.TID 0000.0001) %MON dynstat_wvel_max             =   1.5412778087400E-06
(PID.TID 0000.0001) %MON dynstat_wvel_min             =  -4.5744392320220E-06
(PID.TID 0000.0001) %MON dynstat_wvel_mean            =  -1.1708039662354E-08
(PID.TID 0000.0001) %MON dynstat_wvel_sd              =   1.0017211033959E-07
(PID.TID 0000.0001) %MON dynstat_wvel_del2            =   1.0756888132432E-10
(PID.TID 0000.0001) %MON dynstat_theta_max            =   1.6579948139050E+01
(PID.TID 0000.0001) %MON dynstat_theta_min            =   4.1845850263150E+00
(PID.TID 0000.0001) %MON dynstat_theta_mean           =   7.5988674759752E+00
(PID.TID 0000.0001) %MON dynstat_theta_sd             =   3.5909204637045E+00
(PID.TID 0000.0001) %MON dynstat_theta_del2           =   2.6208183593599E-09
(PID.TID 0000.0001) %MON dynstat_salt_max             =   3.4476101046474E+01
(PID.TID 0000.0001) %MON dynstat_salt_min             =   3.3630000000000E+01
(PID.TID 0000.0001) %MON dynstat_salt_mean            =   3.4188927771670E+01
(PID.TID 0000.0001) %MON dynstat_salt_sd              =   2.7007362123494E-01
(PID.TID 0000.0001) %MON dynstat_salt_del2            =   1.1485848250598E-10
(PID.TID 0000.0001) %MON trAdv_CFL_u_max              =   1.2803645926491E-04
(PID.TID 0000.0001) %MON trAdv_CFL_v_max              =   1.9251134913229E-04
(PID.TID 0000.0001) %MON trAdv_CFL_w_max              =   1.2046854390240E-04
(PID.TID 0000.0001) %MON advcfl_uvel_max              =   1.3576666127968E-04
(PID.TID 0000.0001) %MON advcfl_vvel_max              =   1.9996952998850E-04
(PID.TID 0000.0001) %MON advcfl_wvel_max              =   1.1933319735710E-04
(PID.TID 0000.0001) %MON advcfl_W_hf_max              =   1.2475743360060E-04
(PID.TID 0000.0001) %MON pe_b_mean                    =   4.3198139510893E-11
(PID.TID 0000.0001) %MON ke_max                       =   3.7359128216696E-05
(PID.TID 0000.0001) %MON ke_mean                      =   6.6145294459895E-08
(PID.TID 0000.0001) %MON ke_vol                       =   8.2635254160858E+14
(PID.TID 0000.0001) %MON vort_r_min                   =  -1.6055308148238E-06
(PID.TID 0000.0001) %MON vort_r_max                   =   9.9169047922420E-07
(PID.TID 0000.0001) %MON vort_a_mean                  =   6.9142466381008E-04
(PID.TID 0000.0001) %MON vort_a_sd                    =   1.4187839414927E-06
(PID.TID 0000.0001) %MON vort_p_mean                  =   6.9569812303954E-04
(PID.TID 0000.0001) %MON vort_p_sd                    =   9.4064286279517E-05
(PID.TID 0000.0001) %MON surfExpan_theta_mean         =   7.9813197887068E-15
(PID.TID 0000.0001) %MON surfExpan_salt_mean          =   2.1914822816747E-22
(PID.TID 0000.0001) // =======================================================
(PID.TID 0000.0001) // End MONITOR dynamic field statistics
(PID.TID 0000.0001) // =======================================================
(PID.TID 0000.0001) // =======================================================
(PID.TID 0000.0001) // Begin OBCS MONITOR field statistics
(PID.TID 0000.0001) // =======================================================
(PID.TID 0000.0001) %MON obc_S_vVel_max               =   5.0375843546660E-03
(PID.TID 0000.0001) %MON obc_S_vVel_min               =  -1.1827110521294E-05
(PID.TID 0000.0001) %MON obc_S_vVel_mean              =   1.5315323933810E-20
(PID.TID 0000.0001) %MON obc_S_vVel_sd                =   2.2551723169987E-04
(PID.TID 0000.0001) %MON obc_S_vVel_Int               =   2.6005420039610E-11
(PID.TID 0000.0001) // =======================================================
(PID.TID 0000.0001) // End OBCS MONITOR field statistics
(PID.TID 0000.0001) // =======================================================
 EXTERNAL_FIELDS_LOAD,        40 : iP,iLd,i0,i1=    2    3    2    3 ; Wght=  0.5000000000  0.5000000000
 cg2d: Sum(rhs),rhsMax =  -1.45661260830821E-13  1.10075207447634E-03
 EXTERNAL_FIELDS_LOAD,        41 : iP,iLd,i0,i1=    2    3    2    3 ; Wght=  0.4500000000  0.5500000000
 cg2d: Sum(rhs),rhsMax =   2.62900812231237E-13  1.13390370171158E-03
 EXTERNAL_FIELDS_LOAD,        42 : iP,iLd,i0,i1=    2    3    2    3 ; Wght=  0.4000000000  0.6000000000
 cg2d: Sum(rhs),rhsMax =   1.56319401867222E-13  1.16979329990094E-03
 EXTERNAL_FIELDS_LOAD,        43 : iP,iLd,i0,i1=    2    3    2    3 ; Wght=  0.3500000000  0.6500000000
 cg2d: Sum(rhs),rhsMax =   1.74082970261225E-13  1.20833716323203E-03
 EXTERNAL_FIELDS_LOAD,        44 : iP,iLd,i0,i1=    2    3    2    3 ; Wght=  0.3000000000  0.7000000000
 cg2d: Sum(rhs),rhsMax =   1.03028696685215E-13  1.24939964254538E-03
 EXTERNAL_FIELDS_LOAD,        45 : iP,iLd,i0,i1=    2    3    2    3 ; Wght=  0.2500000000  0.7500000000
 cg2d: Sum(rhs),rhsMax =  -1.56319401867222E-13  1.29279863869969E-03
 EXTERNAL_FIELDS_LOAD,        46 : iP,iLd,i0,i1=    2    3    2    3 ; Wght=  0.2000000000  0.8000000000
 cg2d: Sum(rhs),rhsMax =   2.59348098552437E-13  1.33831146468829E-03
 EXTERNAL_FIELDS_LOAD,        47 : iP,iLd,i0,i1=    2    3    2    3 ; Wght=  0.1500000000  0.8500000000
 cg2d: Sum(rhs),rhsMax =  -5.68434188608080E-14  1.38568101660658E-03
 EXTERNAL_FIELDS_LOAD,        48 : iP,iLd,i0,i1=    2    3    2    3 ; Wght=  0.1000000000  0.9000000000
 cg2d: Sum(rhs),rhsMax =  -1.06581410364015E-14  1.43462219881274E-03
 EXTERNAL_FIELDS_LOAD,        49 : iP,iLd,i0,i1=    2    3    2    3 ; Wght=  0.0500000000  0.9500000000
 cg2d: Sum(rhs),rhsMax =   1.06581410364015E-13  1.48482854427953E-03
 EXTERNAL_FIELDS_LOAD,        50 : iP,iLd,i0,i1=    2    3    3    4 ; Wght=  1.0000000000  0.0000000000
 EXTERNAL_FIELDS_LOAD, it=        50 : Reading new data, i0,i1=    3    4 (prev=    2    3 )
(PID.TID 0000.0001)  MDS_READ_FIELD: opening global file: ../input/merid_halfgauss2p5hr_272x320.bin
(PID.TID 0000.0001)  MDS_READ_FIELD: opening global file: ../input/merid_halfgauss2p5hr_272x320.bin
 cg2d: Sum(rhs),rhsMax =   3.90798504668055E-14  1.53597896006251E-03
 EXTERNAL_FIELDS_LOAD,        51 : iP,iLd,i0,i1=    3    4    3    4 ; Wght=  0.9500000000  0.0500000000
 cg2d: Sum(rhs),rhsMax =   2.20268248085631E-13  1.58849502755259E-03
 EXTERNAL_FIELDS_LOAD,        52 : iP,iLd,i0,i1=    3    4    3    4 ; Wght=  0.9000000000  0.1000000000
 cg2d: Sum(rhs),rhsMax =  -3.55271367880050E-14  1.64249087403430E-03
 EXTERNAL_FIELDS_LOAD,        53 : iP,iLd,i0,i1=    3    4    3    4 ; Wght=  0.8500000000  0.1500000000
 cg2d: Sum(rhs),rhsMax =   4.26325641456060E-14  1.69803032416382E-03
 EXTERNAL_FIELDS_LOAD,        54 : iP,iLd,i0,i1=    3    4    3    4 ; Wght=  0.8000000000  0.2000000000
 cg2d: Sum(rhs),rhsMax =   1.63424829224823E-13  1.75512566561644E-03
 EXTERNAL_FIELDS_LOAD,        55 : iP,iLd,i0,i1=    3    4    3    4 ; Wght=  0.7500000000  0.2500000000
 cg2d: Sum(rhs),rhsMax =   1.70530256582424E-13  1.81373883169527E-03
 EXTERNAL_FIELDS_LOAD,        56 : iP,iLd,i0,i1=    3    4    3    4 ; Wght=  0.7000000000  0.3000000000
 cg2d: Sum(rhs),rhsMax =  -9.94759830064140E-14  1.87378519883234E-03
 EXTERNAL_FIELDS_LOAD,        57 : iP,iLd,i0,i1=    3    4    3    4 ; Wght=  0.6500000000  0.3500000000
 cg2d: Sum(rhs),rhsMax =   4.26325641456060E-14  1.93513931206667E-03
 EXTERNAL_FIELDS_LOAD,        58 : iP,iLd,i0,i1=    3    4    3    4 ; Wght=  0.6000000000  0.4000000000
 cg2d: Sum(rhs),rhsMax =   8.52651282912120E-14  1.99764190563708E-03
 EXTERNAL_FIELDS_LOAD,        59 : iP,iLd,i0,i1=    3    4    3    4 ; Wght=  0.5500000000  0.4500000000
 cg2d: Sum(rhs),rhsMax =   4.26325641456060E-14  2.06110761564104E-03
(PID.TID 0000.0001)      cg2d_init_res =   1.95793313920958E-01
(PID.TID 0000.0001)      cg2d_iters(min,last) =      -1      32
(PID.TID 0000.0001)      cg2d_last_res =   6.10558693487544E-08
(PID.TID 0000.0001) // =======================================================
(PID.TID 0000.0001) // Begin MONITOR dynamic field statistics
(PID.TID 0000.0001) // =======================================================
(PID.TID 0000.0001) %MON time_tsnumber                =                    60
(PID.TID 0000.0001) %MON time_secondsf                =   3.6000000000000E+03
(PID.TID 0000.0001) %MON dynstat_eta_max              =   1.7991404573420E-03
(PID.TID 0000.0001) %MON dynstat_eta_min              =  -3.2296733065831E-04
(PID.TID 0000.0001) %MON dynstat_eta_mean             =  -5.6101946410873E-20
(PID.TID 0000.0001) %MON dynstat_eta_sd               =   1.9177468183856E-04
(PID.TID 0000.0001) %MON dynstat_eta_del2             =   1.9119146310836E-07
(PID.TID 0000.0001) %MON dynstat_uvel_max             =   1.2091238215366E-02
(PID.TID 0000.0001) %MON dynstat_uvel_min             =  -3.2136181862199E-03
(PID.TID 0000.0001) %MON dynstat_uvel_mean            =   1.6750570075786E-05
(PID.TID 0000.0001) %MON dynstat_uvel_sd              =   5.4859265168474E-04
(PID.TID 0000.0001) %MON dynstat_uvel_del2            =   3.4241859969393E-08
(PID.TID 0000.0001) %MON dynstat_vvel_max             =   1.2175402409518E-02
(PID.TID 0000.0001) %MON dynstat_vvel_min             =  -5.8546258863909E-03
(PID.TID 0000.0001) %MON dynstat_vvel_mean            =   1.3390757695769E-05
(PID.TID 0000.0001) %MON dynstat_vvel_sd              =   5.3543339048792E-04
(PID.TID 0000.0001) %MON dynstat_vvel_del2            =   4.2385591233163E-08
(PID.TID 0000.0001) %MON dynstat_wvel_max             =   3.1126561359889E-06
(PID.TID 0000.0001) %MON dynstat_wvel_min             =  -8.5388113084333E-06
(PID.TID 0000.0001) %MON dynstat_wvel_mean            =  -2.1183494672641E-08
(PID.TID 0000.0001) %MON dynstat_wvel_sd              =   1.7054034057695E-07
(PID.TID 0000.0001) %MON dynstat_wvel_del2            =   2.1292497933489E-10
(PID.TID 0000.0001) %MON dynstat_theta_max            =   1.6579933233415E+01
(PID.TID 0000.0001) %MON dynstat_theta_min            =   4.1845853892686E+00
(PID.TID 0000.0001) %MON dynstat_theta_mean           =   7.5988678099514E+00
(PID.TID 0000.0001) %MON dynstat_theta_sd             =   3.5909195447333E+00
(PID.TID 0000.0001) %MON dynstat_theta_del2           =   6.1809237894231E-09
(PID.TID 0000.0001) %MON dynstat_salt_max             =   3.4476101009481E+01
(PID.TID 0000.0001) %MON dynstat_salt_min             =   3.3630000000000E+01
(PID.TID 0000.0001) %MON dynstat_salt_mean            =   3.4188927750507E+01
(PID.TID 0000.0001) %MON dynstat_salt_sd              =   2.7007357428798E-01
(PID.TID 0000.0001) %MON dynstat_salt_del2            =   2.4486332562763E-10
(PID.TID 0000.0001) %MON trAdv_CFL_u_max              =   3.4819622697502E-04
(PID.TID 0000.0001) %MON trAdv_CFL_v_max              =   3.5446714451334E-04
(PID.TID 0000.0001) %MON trAdv_CFL_w_max              =   2.2615734916416E-04
(PID.TID 0000.0001) %MON advcfl_uvel_max              =   3.6197535774605E-04
(PID.TID 0000.0001) %MON advcfl_vvel_max              =   3.6355337143978E-04
(PID.TID 0000.0001) %MON advcfl_wvel_max              =   2.2275159935043E-04
(PID.TID 0000.0001) %MON advcfl_W_hf_max              =   2.3287667204818E-04
(PID.TID 0000.0001) %MON pe_b_mean                    =   1.8844374696658E-10
(PID.TID 0000.0001) %MON ke_max                       =   1.8135174482877E-04
(PID.TID 0000.0001) %MON ke_mean                      =   2.9388832723578E-07
(PID.TID 0000.0001) %MON ke_vol                       =   8.2635254160858E+14
(PID.TID 0000.0001) %MON vort_r_min                   =  -4.6782928696037E-06
(PID.TID 0000.0001) %MON vort_r_max                   =   2.6235185500134E-06
(PID.TID 0000.0001) %MON vort_a_mean                  =   6.9142466381008E-04
(PID.TID 0000.0001) %MON vort_a_sd                    =   1.4189511484699E-06
(PID.TID 0000.0001) %MON vort_p_mean                  =   6.9569812303954E-04
(PID.TID 0000.0001) %MON vort_p_sd                    =   9.4063122415089E-05
(PID.TID 0000.0001) %MON surfExpan_theta_mean         =   8.0239585188098E-14
(PID.TID 0000.0001) %MON surfExpan_salt_mean          =  -7.7544757659259E-22
(PID.TID 0000.0001) // =======================================================
(PID.TID 0000.0001) // End MONITOR dynamic field statistics
(PID.TID 0000.0001) // =======================================================
(PID.TID 0000.0001) // =======================================================
(PID.TID 0000.0001) // Begin OBCS MONITOR field statistics
(PID.TID 0000.0001) // =======================================================
(PID.TID 0000.0001) %MON obc_S_vVel_max               =   8.8771139437907E-03
(PID.TID 0000.0001) %MON obc_S_vVel_min               =  -2.1630239932246E-05
(PID.TID 0000.0001) %MON obc_S_vVel_mean              =  -1.7755983831526E-20
(PID.TID 0000.0001) %MON obc_S_vVel_sd                =   3.9741065476277E-04
(PID.TID 0000.0001) %MON obc_S_vVel_Int               =  -3.0149660545931E-11
(PID.TID 0000.0001) // =======================================================
(PID.TID 0000.0001) // End OBCS MONITOR field statistics
(PID.TID 0000.0001) // =======================================================
 EXTERNAL_FIELDS_LOAD,        60 : iP,iLd,i0,i1=    3    4    3    4 ; Wght=  0.5000000000  0.5000000000
 cg2d: Sum(rhs),rhsMax =   0.00000000000000E+00  2.12533285423022E-03
 EXTERNAL_FIELDS_LOAD,        61 : iP,iLd,i0,i1=    3    4    3    4 ; Wght=  0.4500000000  0.5500000000
 cg2d: Sum(rhs),rhsMax =  -9.23705556488130E-14  2.19010341335598E-03
 EXTERNAL_FIELDS_LOAD,        62 : iP,iLd,i0,i1=    3    4    3    4 ; Wght=  0.4000000000  0.6000000000
 cg2d: Sum(rhs),rhsMax =   0.00000000000000E+00  2.25520147544365E-03
 EXTERNAL_FIELDS_LOAD,        63 : iP,iLd,i0,i1=    3    4    3    4 ; Wght=  0.3500000000  0.6500000000
 cg2d: Sum(rhs),rhsMax =   2.20268248085631E-13  2.32041181751097E-03
 EXTERNAL_FIELDS_LOAD,        64 : iP,iLd,i0,i1=    3    4    3    4 ; Wght=  0.3000000000  0.7000000000
 cg2d: Sum(rhs),rhsMax =  -1.06581410364015E-13  2.38552709140355E-03
 EXTERNAL_FIELDS_LOAD,        65 : iP,iLd,i0,i1=    3    4    3    4 ; Wght=  0.2500000000  0.7500000000
 cg2d: Sum(rhs),rhsMax =   1.91846538655227E-13  2.45035214727431E-03
 EXTERNAL_FIELDS_LOAD,        66 : iP,iLd,i0,i1=    3    4    3    4 ; Wght=  0.2000000000  0.8000000000
 cg2d: Sum(rhs),rhsMax =  -9.94759830064140E-14  2.51470742855818E-03
 EXTERNAL_FIELDS_LOAD,        67 : iP,iLd,i0,i1=    3    4    3    4 ; Wght=  0.1500000000  0.8500000000
 cg2d: Sum(rhs),rhsMax =   0.00000000000000E+00  2.57843151021624E-03
 EXTERNAL_FIELDS_LOAD,        68 : iP,iLd,i0,i1=    3    4    3    4 ; Wght=  0.1000000000  0.9000000000
 cg2d: Sum(rhs),rhsMax =  -1.56319401867222E-13  2.64138287632583E-03
 EXTERNAL_FIELDS_LOAD,        69 : iP,iLd,i0,i1=    3    4    3    4 ; Wght=  0.0500000000  0.9500000000
 cg2d: Sum(rhs),rhsMax =  -7.10542735760100E-15  2.70344104167082E-03
 EXTERNAL_FIELDS_LOAD,        70 : iP,iLd,i0,i1=    3    4    4    5 ; Wght=  1.0000000000  0.0000000000
 EXTERNAL_FIELDS_LOAD, it=        70 : Reading new data, i0,i1=    4    5 (prev=    3    4 )
(PID.TID 0000.0001)  MDS_READ_FIELD: opening global file: ../input/merid_halfgauss2p5hr_272x320.bin
(PID.TID 0000.0001)  MDS_READ_FIELD: opening global file: ../input/merid_halfgauss2p5hr_272x320.bin
 cg2d: Sum(rhs),rhsMax =   1.56319401867222E-13  2.76450711838436E-03
 EXTERNAL_FIELDS_LOAD,        71 : iP,iLd,i0,i1=    4    5    4    5 ; Wght=  0.9500000000  0.0500000000
 cg2d: Sum(rhs),rhsMax =  -4.97379915032070E-14  2.82517094731356E-03
 EXTERNAL_FIELDS_LOAD,        72 : iP,iLd,i0,i1=    4    5    4    5 ; Wght=  0.9000000000  0.1000000000
 cg2d: Sum(rhs),rhsMax =   2.13162820728030E-14  2.88577167013598E-03
 EXTERNAL_FIELDS_LOAD,        73 : iP,iLd,i0,i1=    4    5    4    5 ; Wght=  0.8500000000  0.1500000000
 cg2d: Sum(rhs),rhsMax =   2.13162820728030E-14  2.94661969521025E-03
 EXTERNAL_FIELDS_LOAD,        74 : iP,iLd,i0,i1=    4    5    4    5 ; Wght=  0.8000000000  0.2000000000
 cg2d: Sum(rhs),rhsMax =  -8.52651282912120E-14  3.00798911916608E-03
 EXTERNAL_FIELDS_LOAD,        75 : iP,iLd,i0,i1=    4    5    4    5 ; Wght=  0.7500000000  0.2500000000
 cg2d: Sum(rhs),rhsMax =  -2.84217094304040E-14  3.07011238124350E-03
 EXTERNAL_FIELDS_LOAD,        76 : iP,iLd,i0,i1=    4    5    4    5 ; Wght=  0.7000000000  0.3000000000
 cg2d: Sum(rhs),rhsMax =  -8.52651282912120E-14  3.13317747729068E-03
 EXTERNAL_FIELDS_LOAD,        77 : iP,iLd,i0,i1=    4    5    4    5 ; Wght=  0.6500000000  0.3500000000
 cg2d: Sum(rhs),rhsMax =  -7.10542735760100E-15  3.19732724233812E-03
 EXTERNAL_FIELDS_LOAD,        78 : iP,iLd,i0,i1=    4    5    4    5 ; Wght=  0.6000000000  0.4000000000
 cg2d: Sum(rhs),rhsMax =   3.55271367880050E-14  3.26266024666487E-03
 EXTERNAL_FIELDS_LOAD,        79 : iP,iLd,i0,i1=    4    5    4    5 ; Wght=  0.5500000000  0.4500000000
 cg2d: Sum(rhs),rhsMax =   7.10542735760100E-15  3.32923286393158E-03
(PID.TID 0000.0001)      cg2d_init_res =   1.45577304457555E-01
(PID.TID 0000.0001)      cg2d_iters(min,last) =      -1      31
(PID.TID 0000.0001)      cg2d_last_res =   8.17481797631305E-08
(PID.TID 0000.0001) // =======================================================
(PID.TID 0000.0001) // Begin MONITOR dynamic field statistics
(PID.TID 0000.0001) // =======================================================
(PID.TID 0000.0001) %MON time_tsnumber                =                    80
(PID.TID 0000.0001) %MON time_secondsf                =   4.8000000000000E+03
(PID.TID 0000.0001) %MON dynstat_eta_max              =   2.9079083823768E-03
(PID.TID 0000.0001) %MON dynstat_eta_min              =  -5.6646697458630E-04
(PID.TID 0000.0001) %MON dynstat_eta_mean             =  -1.0788835848245E-20
(PID.TID 0000.0001) %MON dynstat_eta_sd               =   3.2773111393237E-04
(PID.TID 0000.0001) %MON dynstat_eta_del2             =   2.9867843537635E-07
(PID.TID 0000.0001) %MON dynstat_uvel_max             =   2.4301495518004E-02
(PID.TID 0000.0001) %MON dynstat_uvel_min             =  -6.5655655198611E-03
(PID.TID 0000.0001) %MON dynstat_uvel_mean            =   2.9353855691015E-05
(PID.TID 0000.0001) %MON dynstat_uvel_sd              =   1.0963501110435E-03
(PID.TID 0000.0001) %MON dynstat_uvel_del2            =   7.1222291008956E-08
(PID.TID 0000.0001) %MON dynstat_vvel_max             =   1.8383502566690E-02
(PID.TID 0000.0001) %MON dynstat_vvel_min             =  -9.6044123118859E-03
(PID.TID 0000.0001) %MON dynstat_vvel_mean            =   1.6779874926423E-05
(PID.TID 0000.0001) %MON dynstat_vvel_sd              =   7.9096432853710E-04
(PID.TID 0000.0001) %MON dynstat_vvel_del2            =   7.7182961732065E-08
(PID.TID 0000.0001) %MON dynstat_wvel_max             =   5.3819159062294E-06
(PID.TID 0000.0001) %MON dynstat_wvel_min             =  -1.4142522579191E-05
(PID.TID 0000.0001) %MON dynstat_wvel_mean            =  -3.1560186335154E-08
(PID.TID 0000.0001) %MON dynstat_wvel_sd              =   2.7268219645529E-07
(PID.TID 0000.0001) %MON dynstat_wvel_del2            =   3.7313029476640E-10
(PID.TID 0000.0001) %MON dynstat_theta_max            =   1.6579929264636E+01
(PID.TID 0000.0001) %MON dynstat_theta_min            =   4.1845857242680E+00
(PID.TID 0000.0001) %MON dynstat_theta_mean           =   7.5988683483275E+00
(PID.TID 0000.0001) %MON dynstat_theta_sd             =   3.5909188298091E+00
(PID.TID 0000.0001) %MON dynstat_theta_del2           =   1.2566593280394E-08
(PID.TID 0000.0001) %MON dynstat_salt_max             =   3.4476100975336E+01
(PID.TID 0000.0001) %MON dynstat_salt_min             =   3.3629999990504E+01
(PID.TID 0000.0001) %MON dynstat_salt_mean            =   3.4188927716221E+01
(PID.TID 0000.0001) %MON dynstat_salt_sd              =   2.7007353728289E-01
(PID.TID 0000.0001) %MON dynstat_salt_del2            =   4.7417367396050E-10
(PID.TID 0000.0001) %MON trAdv_CFL_u_max              =   7.0730878224094E-04
(PID.TID 0000.0001) %MON trAdv_CFL_v_max              =   5.3942932966588E-04
(PID.TID 0000.0001) %MON trAdv_CFL_w_max              =   3.7788150039453E-04
(PID.TID 0000.0001) %MON advcfl_uvel_max              =   7.2751271643225E-04
(PID.TID 0000.0001) %MON advcfl_vvel_max              =   5.4892512889489E-04
(PID.TID 0000.0001) %MON advcfl_wvel_max              =   3.6893537163106E-04
(PID.TID 0000.0001) %MON advcfl_W_hf_max              =   3.8570516125066E-04
(PID.TID 0000.0001) %MON pe_b_mean                    =   5.5034438197903E-10
(PID.TID 0000.0001) %MON ke_max                       =   6.0304925940694E-04
(PID.TID 0000.0001) %MON ke_mean                      =   9.1403963196720E-07
(PID.TID 0000.0001) %MON ke_vol                       =   8.2635254160858E+14
(PID.TID 0000.0001) %MON vort_r_min                   =  -9.6181388463293E-06
(PID.TID 0000.0001) %MON vort_r_max                   =   5.2489437524463E-06
(PID.TID 0000.0001) %MON vort_a_mean                  =   6.9142466381008E-04
(PID.TID 0000.0001) %MON vort_a_sd                    =   1.4194129414894E-06
(PID.TID 0000.0001) %MON vort_p_mean                  =   6.9569812303954E-04
(PID.TID 0000.0001) %MON vort_p_sd                    =   9.4061078951953E-05
(PID.TID 0000.0001) %MON surfExpan_theta_mean         =   1.7896077172050E-13
(PID.TID 0000.0001) %MON surfExpan_salt_mean          =   7.0801735254106E-22
(PID.TID 0000.0001) // =======================================================
(PID.TID 0000.0001) // End MONITOR dynamic field statistics
(PID.TID 0000.0001) // =======================================================
(PID.TID 0000.0001) // =======================================================
(PID.TID 0000.0001) // Begin OBCS MONITOR field statistics
(PID.TID 0000.0001) // =======================================================
(PID.TID 0000.0001) %MON obc_S_vVel_max               =   1.2744243645915E-02
(PID.TID 0000.0001) %MON obc_S_vVel_min               =  -3.3219652571152E-05
(PID.TID 0000.0001) %MON obc_S_vVel_mean              =  -1.6341855234553E-20
(PID.TID 0000.0001) %MON obc_S_vVel_sd                =   5.7056805799032E-04
(PID.TID 0000.0001) %MON obc_S_vVel_Int               =  -2.7748470188271E-11
(PID.TID 0000.0001) // =======================================================
(PID.TID 0000.0001) // End OBCS MONITOR field statistics
(PID.TID 0000.0001) // =======================================================
 EXTERNAL_FIELDS_LOAD,        80 : iP,iLd,i0,i1=    4    5    4    5 ; Wght=  0.5000000000  0.5000000000
 cg2d: Sum(rhs),rhsMax =   9.94759830064140E-14  3.39706212068369E-03
 EXTERNAL_FIELDS_LOAD,        81 : iP,iLd,i0,i1=    4    5    4    5 ; Wght=  0.4500000000  0.5500000000
 cg2d: Sum(rhs),rhsMax =   7.10542735760100E-15  3.46612900944663E-03
 EXTERNAL_FIELDS_LOAD,        82 : iP,iLd,i0,i1=    4    5    4    5 ; Wght=  0.4000000000  0.6000000000
 cg2d: Sum(rhs),rhsMax =   1.56319401867222E-13  3.53638202933765E-03
 EXTERNAL_FIELDS_LOAD,        83 : iP,iLd,i0,i1=    4    5    4    5 ; Wght=  0.3500000000  0.6500000000
 cg2d: Sum(rhs),rhsMax =  -1.56319401867222E-13  3.60774079786006E-03
 EXTERNAL_FIELDS_LOAD,        84 : iP,iLd,i0,i1=    4    5    4    5 ; Wght=  0.3000000000  0.7000000000
 cg2d: Sum(rhs),rhsMax =   5.68434188608080E-14  3.68009964746862E-03
 EXTERNAL_FIELDS_LOAD,        85 : iP,iLd,i0,i1=    4    5    4    5 ; Wght=  0.2500000000  0.7500000000
 cg2d: Sum(rhs),rhsMax =  -2.13162820728030E-14  3.75333117559398E-03
 EXTERNAL_FIELDS_LOAD,        86 : iP,iLd,i0,i1=    4    5    4    5 ; Wght=  0.2000000000  0.8000000000
 cg2d: Sum(rhs),rhsMax =   1.77635683940025E-13  3.82728975469402E-03
 EXTERNAL_FIELDS_LOAD,        87 : iP,iLd,i0,i1=    4    5    4    5 ; Wght=  0.1500000000  0.8500000000
 cg2d: Sum(rhs),rhsMax =   7.10542735760100E-15  3.90181502941403E-03
 EXTERNAL_FIELDS_LOAD,        88 : iP,iLd,i0,i1=    4    5    4    5 ; Wght=  0.1000000000  0.9000000000
 cg2d: Sum(rhs),rhsMax =   9.23705556488130E-14  3.97673543273243E-03
 EXTERNAL_FIELDS_LOAD,        89 : iP,iLd,i0,i1=    4    5    4    5 ; Wght=  0.0500000000  0.9500000000
 cg2d: Sum(rhs),rhsMax =   3.55271367880050E-14  4.05187174498632E-03
 EXTERNAL_FIELDS_LOAD,        90 : iP,iLd,i0,i1=    4    5    5    6 ; Wght=  1.0000000000  0.0000000000
 EXTERNAL_FIELDS_LOAD, it=        90 : Reading new data, i0,i1=    5    6 (prev=    4    5 )
(PID.TID 0000.0001)  MDS_READ_FIELD: opening global file: ../input/merid_halfgauss2p5hr_272x320.bin
(PID.TID 0000.0001)  MDS_READ_FIELD: opening global file: ../input/merid_halfgauss2p5hr_272x320.bin
 cg2d: Sum(rhs),rhsMax =  -1.42108547152020E-14  4.12704070262929E-03
 EXTERNAL_FIELDS_LOAD,        91 : iP,iLd,i0,i1=    5    6    5    6 ; Wght=  0.9500000000  0.0500000000
 cg2d: Sum(rhs),rhsMax =  -1.27897692436818E-13  4.20231198530143E-03
 EXTERNAL_FIELDS_LOAD,        92 : iP,iLd,i0,i1=    5    6    5    6 ; Wght=  0.9000000000  0.1000000000
 cg2d: Sum(rhs),rhsMax =   4.26325641456060E-14  4.27765522398741E-03
 EXTERNAL_FIELDS_LOAD,        93 : iP,iLd,i0,i1=    5    6    5    6 ; Wght=  0.8500000000  0.1500000000
 cg2d: Sum(rhs),rhsMax =   2.13162820728030E-14  4.35302806655570E-03
 EXTERNAL_FIELDS_LOAD,        94 : iP,iLd,i0,i1=    5    6    5    6 ; Wght=  0.8000000000  0.2000000000
 cg2d: Sum(rhs),rhsMax =  -1.42108547152020E-13  4.42837708722127E-03
 EXTERNAL_FIELDS_LOAD,        95 : iP,iLd,i0,i1=    5    6    5    6 ; Wght=  0.7500000000  0.2500000000
 cg2d: Sum(rhs),rhsMax =   1.06581410364015E-13  4.50363941067402E-03
 EXTERNAL_FIELDS_LOAD,        96 : iP,iLd,i0,i1=    5    6    5    6 ; Wght=  0.7000000000  0.3000000000
 cg2d: Sum(rhs),rhsMax =  -6.39488462184090E-14  4.57874508604403E-03
 EXTERNAL_FIELDS_LOAD,        97 : iP,iLd,i0,i1=    5    6    5    6 ; Wght=  0.6500000000  0.3500000000
 cg2d: Sum(rhs),rhsMax =   1.49213974509621E-13  4.65361993166646E-03
 EXTERNAL_FIELDS_LOAD,        98 : iP,iLd,i0,i1=    5    6    5    6 ; Wght=  0.6000000000  0.4000000000
 cg2d: Sum(rhs),rhsMax =   7.10542735760100E-14  4.72818859500369E-03
 EXTERNAL_FIELDS_LOAD,        99 : iP,iLd,i0,i1=    5    6    5    6 ; Wght=  0.5500000000  0.4500000000
 cg2d: Sum(rhs),rhsMax =  -3.55271367880050E-14  4.80237759090327E-03
(PID.TID 0000.0001)      cg2d_init_res =   1.14140546120630E-01
(PID.TID 0000.0001)      cg2d_iters(min,last) =      -1      30
(PID.TID 0000.0001)      cg2d_last_res =   9.99304932373520E-08
(PID.TID 0000.0001) // =======================================================
(PID.TID 0000.0001) // Begin MONITOR dynamic field statistics
(PID.TID 0000.0001) // =======================================================
(PID.TID 0000.0001) %MON time_tsnumber                =                   100
(PID.TID 0000.0001) %MON time_secondsf                =   6.0000000000000E+03
(PID.TID 0000.0001) %MON dynstat_eta_max              =   4.1959514561374E-03
(PID.TID 0000.0001) %MON dynstat_eta_min              =  -8.5157458636816E-04
(PID.TID 0000.0001) %MON dynstat_eta_mean             =  -6.4733015089469E-20
(PID.TID 0000.0001) %MON dynstat_eta_sd               =   4.8763454316133E-04
(PID.TID 0000.0001) %MON dynstat_eta_del2             =   4.2217244742917E-07
(PID.TID 0000.0001) %MON dynstat_uvel_max             =   4.1129378307012E-02
(PID.TID 0000.0001) %MON dynstat_uvel_min             =  -1.1167736031631E-02
(PID.TID 0000.0001) %MON dynstat_uvel_mean            =   4.4412565248393E-05
(PID.TID 0000.0001) %MON dynstat_uvel_sd              =   1.8436914086751E-03
(PID.TID 0000.0001) %MON dynstat_uvel_del2            =   1.2511063565301E-07
(PID.TID 0000.0001) %MON dynstat_vvel_max             =   2.4126758651614E-02
(PID.TID 0000.0001) %MON dynstat_vvel_min             =  -1.3523197693973E-02
(PID.TID 0000.0001) %MON dynstat_vvel_mean            =   1.9345633718407E-05
(PID.TID 0000.0001) %MON dynstat_vvel_sd              =   1.0078361906218E-03
(PID.TID 0000.0001) %MON dynstat_vvel_del2            =   1.2292674653440E-07
(PID.TID 0000.0001) %MON dynstat_wvel_max             =   7.8008041480805E-06
(PID.TID 0000.0001) %MON dynstat_wvel_min             =  -1.9944416094094E-05
(PID.TID 0000.0001) %MON dynstat_wvel_mean            =  -4.0704814544422E-08
(PID.TID 0000.0001) %MON dynstat_wvel_sd              =   3.6950169837703E-07
(PID.TID 0000.0001) %MON dynstat_wvel_del2            =   5.6345852804896E-10
(PID.TID 0000.0001) %MON dynstat_theta_max            =   1.6579937733019E+01
(PID.TID 0000.0001) %MON dynstat_theta_min            =   4.1845860778335E+00
(PID.TID 0000.0001) %MON dynstat_theta_mean           =   7.5988690873833E+00
(PID.TID 0000.0001) %MON dynstat_theta_sd             =   3.5909183112272E+00
(PID.TID 0000.0001) %MON dynstat_theta_del2           =   2.2131728141290E-08
(PID.TID 0000.0001) %MON dynstat_salt_max             =   3.4476100939299E+01
(PID.TID 0000.0001) %MON dynstat_salt_min             =   3.3629995136850E+01
(PID.TID 0000.0001) %MON dynstat_salt_mean            =   3.4188927668943E+01
(PID.TID 0000.0001) %MON dynstat_salt_sd              =   2.7007350989319E-01
(PID.TID 0000.0001) %MON dynstat_salt_del2            =   8.1627697653607E-10
(PID.TID 0000.0001) %MON trAdv_CFL_u_max              =   1.2058048567218E-03
(PID.TID 0000.0001) %MON trAdv_CFL_v_max              =   7.1309120885128E-04
(PID.TID 0000.0001) %MON trAdv_CFL_w_max              =   5.3622387863506E-04
(PID.TID 0000.0001) %MON advcfl_uvel_max              =   1.2312871490372E-03
(PID.TID 0000.0001) %MON advcfl_vvel_max              =   7.2041680058567E-04
(PID.TID 0000.0001) %MON advcfl_wvel_max              =   5.2028911549810E-04
(PID.TID 0000.0001) %MON advcfl_W_hf_max              =   5.4393862074802E-04
(PID.TID 0000.0001) %MON pe_b_mean                    =   1.2183950182611E-09
(PID.TID 0000.0001) %MON ke_max                       =   1.5365252772764E-03
(PID.TID 0000.0001) %MON ke_mean                      =   2.2081056101214E-06
(PID.TID 0000.0001) %MON ke_vol                       =   8.2635254160858E+14
(PID.TID 0000.0001) %MON vort_r_min                   =  -1.6382086658439E-05
(PID.TID 0000.0001) %MON vort_r_max                   =   8.8415290717732E-06
(PID.TID 0000.0001) %MON vort_a_mean                  =   6.9142466381008E-04
(PID.TID 0000.0001) %MON vort_a_sd                    =   1.4204714180457E-06
(PID.TID 0000.0001) %MON vort_p_mean                  =   6.9569812303954E-04
(PID.TID 0000.0001) %MON vort_p_sd                    =   9.4057989470166E-05
(PID.TID 0000.0001) %MON surfExpan_theta_mean         =   3.6659624198634E-13
(PID.TID 0000.0001) %MON surfExpan_salt_mean          =  -6.6418770690757E-21
(PID.TID 0000.0001) // =======================================================
(PID.TID 0000.0001) // End MONITOR dynamic field statistics
(PID.TID 0000.0001) // =======================================================
(PID.TID 0000.0001) // =======================================================
(PID.TID 0000.0001) // Begin OBCS MONITOR field statistics
(PID.TID 0000.0001) // =======================================================
(PID.TID 0000.0001) %MON obc_S_vVel_max               =   1.6059449387828E-02
(PID.TID 0000.0001) %MON obc_S_vVel_min               =  -4.2231897699959E-05
(PID.TID 0000.0001) %MON obc_S_vVel_mean              =  -1.4853084081343E-19
(PID.TID 0000.0001) %MON obc_S_vVel_sd                =   7.1901885349586E-04
(PID.TID 0000.0001) %MON obc_S_vVel_Int               =  -2.5220536770121E-10
(PID.TID 0000.0001) // =======================================================
(PID.TID 0000.0001) // End OBCS MONITOR field statistics
(PID.TID 0000.0001) // =======================================================
 EXTERNAL_FIELDS_LOAD,       100 : iP,iLd,i0,i1=    5    6    5    6 ; Wght=  0.5000000000  0.5000000000
 cg2d: Sum(rhs),rhsMax =   2.55795384873636E-13  4.87611811745020E-03
 EXTERNAL_FIELDS_LOAD,       101 : iP,iLd,i0,i1=    5    6    5    6 ; Wght=  0.4500000000  0.5500000000
 cg2d: Sum(rhs),rhsMax =   1.20792265079217E-13  4.94934849271085E-03
 EXTERNAL_FIELDS_LOAD,       102 : iP,iLd,i0,i1=    5    6    5    6 ; Wght=  0.4000000000  0.6000000000
 cg2d: Sum(rhs),rhsMax =  -1.42108547152020E-14  5.02201610999310E-03
 EXTERNAL_FIELDS_LOAD,       103 : iP,iLd,i0,i1=    5    6    5    6 ; Wght=  0.3500000000  0.6500000000
 cg2d: Sum(rhs),rhsMax =   1.42108547152020E-13  5.09407885233795E-03
 EXTERNAL_FIELDS_LOAD,       104 : iP,iLd,i0,i1=    5    6    5    6 ; Wght=  0.3000000000  0.7000000000
 cg2d: Sum(rhs),rhsMax =  -2.13162820728030E-14  5.16550595453271E-03
 EXTERNAL_FIELDS_LOAD,       105 : iP,iLd,i0,i1=    5    6    5    6 ; Wght=  0.2500000000  0.7500000000
 cg2d: Sum(rhs),rhsMax =   1.42108547152020E-14  5.23627833585124E-03
 EXTERNAL_FIELDS_LOAD,       106 : iP,iLd,i0,i1=    5    6    5    6 ; Wght=  0.2000000000  0.8000000000
 cg2d: Sum(rhs),rhsMax =   5.68434188608080E-14  5.30638845438623E-03
 EXTERNAL_FIELDS_LOAD,       107 : iP,iLd,i0,i1=    5    6    5    6 ; Wght=  0.1500000000  0.8500000000
 cg2d: Sum(rhs),rhsMax =   9.94759830064140E-14  5.37583975222427E-03
 EXTERNAL_FIELDS_LOAD,       108 : iP,iLd,i0,i1=    5    6    5    6 ; Wght=  0.1000000000  0.9000000000
 cg2d: Sum(rhs),rhsMax =  -2.84217094304040E-14  5.44464577057666E-03
 EXTERNAL_FIELDS_LOAD,       109 : iP,iLd,i0,i1=    5    6    5    6 ; Wght=  0.0500000000  0.9500000000
 cg2d: Sum(rhs),rhsMax =  -1.35003119794419E-13  5.51282901649103E-03
 EXTERNAL_FIELDS_LOAD,       110 : iP,iLd,i0,i1=    5    6    6    7 ; Wght=  1.0000000000  0.0000000000
 EXTERNAL_FIELDS_LOAD, it=       110 : Reading new data, i0,i1=    6    7 (prev=    5    6 )
(PID.TID 0000.0001)  MDS_READ_FIELD: opening global file: ../input/merid_halfgauss2p5hr_272x320.bin
(PID.TID 0000.0001)  MDS_READ_FIELD: opening global file: ../input/merid_halfgauss2p5hr_272x320.bin
 cg2d: Sum(rhs),rhsMax =   2.84217094304040E-14  5.58041965947414E-03
 EXTERNAL_FIELDS_LOAD,       111 : iP,iLd,i0,i1=    6    7    6    7 ; Wght=  0.9500000000  0.0500000000
 cg2d: Sum(rhs),rhsMax =  -2.13162820728030E-14  5.64700517292972E-03
 EXTERNAL_FIELDS_LOAD,       112 : iP,iLd,i0,i1=    6    7    6    7 ; Wght=  0.9000000000  0.1000000000
 cg2d: Sum(rhs),rhsMax =  -2.13162820728030E-14  5.71236081058591E-03
 EXTERNAL_FIELDS_LOAD,       113 : iP,iLd,i0,i1=    6    7    6    7 ; Wght=  0.8500000000  0.1500000000
 cg2d: Sum(rhs),rhsMax =  -4.26325641456060E-14  5.77629852761493E-03
 EXTERNAL_FIELDS_LOAD,       114 : iP,iLd,i0,i1=    6    7    6    7 ; Wght=  0.8000000000  0.2000000000
 cg2d: Sum(rhs),rhsMax =   1.56319401867222E-13  5.83867008061748E-03
 EXTERNAL_FIELDS_LOAD,       115 : iP,iLd,i0,i1=    6    7    6    7 ; Wght=  0.7500000000  0.2500000000
 cg2d: Sum(rhs),rhsMax =  -7.10542735760100E-15  5.89936855319499E-03
 EXTERNAL_FIELDS_LOAD,       116 : iP,iLd,i0,i1=    6    7    6    7 ; Wght=  0.7000000000  0.3000000000
 cg2d: Sum(rhs),rhsMax =   1.06581410364015E-13  5.95832809640780E-03
 EXTERNAL_FIELDS_LOAD,       117 : iP,iLd,i0,i1=    6    7    6    7 ; Wght=  0.6500000000  0.3500000000
 cg2d: Sum(rhs),rhsMax =  -2.48689957516035E-13  6.01552224408774E-03
 EXTERNAL_FIELDS_LOAD,       118 : iP,iLd,i0,i1=    6    7    6    7 ; Wght=  0.6000000000  0.4000000000
 cg2d: Sum(rhs),rhsMax =   9.23705556488130E-14  6.07096113570827E-03
 EXTERNAL_FIELDS_LOAD,       119 : iP,iLd,i0,i1=    6    7    6    7 ; Wght=  0.5500000000  0.4500000000
 cg2d: Sum(rhs),rhsMax =   1.84741111297626E-13  6.12468797069392E-03
(PID.TID 0000.0001)      cg2d_init_res =   8.83817719535627E-02
(PID.TID 0000.0001)      cg2d_iters(min,last) =      -1      30
(PID.TID 0000.0001)      cg2d_last_res =   8.46219050717627E-08
(PID.TID 0000.0001) // =======================================================
(PID.TID 0000.0001) // Begin MONITOR dynamic field statistics
(PID.TID 0000.0001) // =======================================================
(PID.TID 0000.0001) %MON time_tsnumber                =                   120
(PID.TID 0000.0001) %MON time_secondsf                =   7.2000000000000E+03
(PID.TID 0000.0001) %MON dynstat_eta_max              =   5.3542591075312E-03
(PID.TID 0000.0001) %MON dynstat_eta_min              =  -1.1392511324605E-03
(PID.TID 0000.0001) %MON dynstat_eta_mean             =  -1.5967477055402E-19
(PID.TID 0000.0001) %MON dynstat_eta_sd               =   6.5598300075379E-04
(PID.TID 0000.0001) %MON dynstat_eta_del2             =   5.2053794468899E-07
(PID.TID 0000.0001) %MON dynstat_uvel_max             =   6.1100157181407E-02
(PID.TID 0000.0001) %MON dynstat_uvel_min             =  -1.6772290342837E-02
(PID.TID 0000.0001) %MON dynstat_uvel_mean            =   6.1097821132299E-05
(PID.TID 0000.0001) %MON dynstat_uvel_sd              =   2.7185144560135E-03
(PID.TID 0000.0001) %MON dynstat_uvel_del2            =   1.9233016465992E-07
(PID.TID 0000.0001) %MON dynstat_vvel_max             =   2.7137514377609E-02
(PID.TID 0000.0001) %MON dynstat_vvel_min             =  -1.6581877210324E-02
(PID.TID 0000.0001) %MON dynstat_vvel_mean            =   2.0175207443962E-05
(PID.TID 0000.0001) %MON dynstat_vvel_sd              =   1.0842367206799E-03
(PID.TID 0000.0001) %MON dynstat_vvel_del2            =   1.7273029346376E-07
(PID.TID 0000.0001) %MON dynstat_wvel_max             =   8.4898427849499E-06
(PID.TID 0000.0001) %MON dynstat_wvel_min             =  -2.4540331831332E-05
(PID.TID 0000.0001) %MON dynstat_wvel_mean            =  -4.5925149090664E-08
(PID.TID 0000.0001) %MON dynstat_wvel_sd              =   4.2772979734880E-07
(PID.TID 0000.0001) %MON dynstat_wvel_del2            =   7.1591090473811E-10
(PID.TID 0000.0001) %MON dynstat_theta_max            =   1.6579957264603E+01
(PID.TID 0000.0001) %MON dynstat_theta_min            =   4.1845859619879E+00
(PID.TID 0000.0001) %MON dynstat_theta_mean           =   7.5988699755560E+00
(PID.TID 0000.0001) %MON dynstat_theta_sd             =   3.5909179411160E+00
(PID.TID 0000.0001) %MON dynstat_theta_del2           =   3.3881699612178E-08
(PID.TID 0000.0001) %MON dynstat_salt_max             =   3.4476100951106E+01
(PID.TID 0000.0001) %MON dynstat_salt_min             =   3.3629988147578E+01
(PID.TID 0000.0001) %MON dynstat_salt_mean            =   3.4188927612125E+01
(PID.TID 0000.0001) %MON dynstat_salt_sd              =   2.7007348963345E-01
(PID.TID 0000.0001) %MON dynstat_salt_del2            =   1.2354171097048E-09
(PID.TID 0000.0001) %MON trAdv_CFL_u_max              =   1.8022128500804E-03
(PID.TID 0000.0001) %MON trAdv_CFL_v_max              =   8.0937845611048E-04
(PID.TID 0000.0001) %MON trAdv_CFL_w_max              =   6.6495420500612E-04
(PID.TID 0000.0001) %MON advcfl_uvel_max              =   1.8291500225785E-03
(PID.TID 0000.0001) %MON advcfl_vvel_max              =   8.1031694170226E-04
(PID.TID 0000.0001) %MON advcfl_wvel_max              =   6.4018256951300E-04
(PID.TID 0000.0001) %MON advcfl_W_hf_max              =   6.6928177721813E-04
(PID.TID 0000.0001) %MON pe_b_mean                    =   2.2048769611647E-09
(PID.TID 0000.0001) %MON ke_max                       =   3.1236296439211E-03
(PID.TID 0000.0001) %MON ke_mean                      =   4.2843181117663E-06
(PID.TID 0000.0001) %MON ke_vol                       =   8.2635254160858E+14
(PID.TID 0000.0001) %MON vort_r_min                   =  -2.4543236348626E-05
(PID.TID 0000.0001) %MON vort_r_max                   =   1.3007890476889E-05
(PID.TID 0000.0001) %MON vort_a_mean                  =   6.9142466381008E-04
(PID.TID 0000.0001) %MON vort_a_sd                    =   1.4224316546279E-06
(PID.TID 0000.0001) %MON vort_p_mean                  =   6.9569812303954E-04
(PID.TID 0000.0001) %MON vort_p_sd                    =   9.4053959465345E-05
(PID.TID 0000.0001) %MON surfExpan_theta_mean         =   3.9511681933256E-13
(PID.TID 0000.0001) %MON surfExpan_salt_mean          =  -2.3600578418035E-21
(PID.TID 0000.0001) // =======================================================
(PID.TID 0000.0001) // End MONITOR dynamic field statistics
(PID.TID 0000.0001) // =======================================================
(PID.TID 0000.0001) // =======================================================
(PID.TID 0000.0001) // Begin OBCS MONITOR field statistics
(PID.TID 0000.0001) // =======================================================
(PID.TID 0000.0001) %MON obc_S_vVel_max               =   1.8353282620514E-02
(PID.TID 0000.0001) %MON obc_S_vVel_min               =  -4.4635914873922E-05
(PID.TID 0000.0001) %MON obc_S_vVel_mean              =   1.4539344731440E-20
(PID.TID 0000.0001) %MON obc_S_vVel_sd                =   8.2168863264548E-04
(PID.TID 0000.0001) %MON obc_S_vVel_Int               =   2.4687807353985E-11
(PID.TID 0000.0001) // =======================================================
(PID.TID 0000.0001) // End OBCS MONITOR field statistics
(PID.TID 0000.0001) // =======================================================
 EXTERNAL_FIELDS_LOAD,       120 : iP,iLd,i0,i1=    6    7    6    7 ; Wght=  0.5000000000  0.5000000000
 cg2d: Sum(rhs),rhsMax =   1.63424829224823E-13  6.17677498625816E-03
 EXTERNAL_FIELDS_LOAD,       121 : iP,iLd,i0,i1=    6    7    6    7 ; Wght=  0.4500000000  0.5500000000
 cg2d: Sum(rhs),rhsMax =  -4.97379915032070E-14  6.22731920477398E-03
 EXTERNAL_FIELDS_LOAD,       122 : iP,iLd,i0,i1=    6    7    6    7 ; Wght=  0.4000000000  0.6000000000
 cg2d: Sum(rhs),rhsMax =   3.76587649952853E-13  6.27643814415070E-03
 EXTERNAL_FIELDS_LOAD,       123 : iP,iLd,i0,i1=    6    7    6    7 ; Wght=  0.3500000000  0.6500000000
 cg2d: Sum(rhs),rhsMax =   3.55271367880050E-13  6.32426563202581E-03
 EXTERNAL_FIELDS_LOAD,       124 : iP,iLd,i0,i1=    6    7    6    7 ; Wght=  0.3000000000  0.7000000000
 cg2d: Sum(rhs),rhsMax =  -3.55271367880050E-14  6.37094781648083E-03
 EXTERNAL_FIELDS_LOAD,       125 : iP,iLd,i0,i1=    6    7    6    7 ; Wght=  0.2500000000  0.7500000000
 cg2d: Sum(rhs),rhsMax =   2.06057393370429E-13  6.41663942558825E-03
 EXTERNAL_FIELDS_LOAD,       126 : iP,iLd,i0,i1=    6    7    6    7 ; Wght=  0.2000000000  0.8000000000
 cg2d: Sum(rhs),rhsMax =   9.94759830064140E-14  6.46150029709865E-03
 EXTERNAL_FIELDS_LOAD,       127 : iP,iLd,i0,i1=    6    7    6    7 ; Wght=  0.1500000000  0.8500000000
 cg2d: Sum(rhs),rhsMax =  -5.68434188608080E-14  6.50569217844768E-03
 EXTERNAL_FIELDS_LOAD,       128 : iP,iLd,i0,i1=    6    7    6    7 ; Wght=  0.1000000000  0.9000000000
 cg2d: Sum(rhs),rhsMax =   1.70530256582424E-13  6.54937578545406E-03
 EXTERNAL_FIELDS_LOAD,       129 : iP,iLd,i0,i1=    6    7    6    7 ; Wght=  0.0500000000  0.9500000000
 cg2d: Sum(rhs),rhsMax =   1.84741111297626E-13  6.59270810427775E-03
 EXTERNAL_FIELDS_LOAD,       130 : iP,iLd,i0,i1=    6    7    7    8 ; Wght=  1.0000000000  0.0000000000
 EXTERNAL_FIELDS_LOAD, it=       130 : Reading new data, i0,i1=    7    8 (prev=    6    7 )
(PID.TID 0000.0001)  MDS_READ_FIELD: opening global file: ../input/merid_halfgauss2p5hr_272x320.bin
(PID.TID 0000.0001)  MDS_READ_FIELD: opening global file: ../input/merid_halfgauss2p5hr_272x320.bin
 cg2d: Sum(rhs),rhsMax =   2.48689957516035E-13  6.63583992359248E-03
 EXTERNAL_FIELDS_LOAD,       131 : iP,iLd,i0,i1=    7    8    7    8 ; Wght=  0.9500000000  0.0500000000
 cg2d: Sum(rhs),rhsMax =   0.00000000000000E+00  6.67771502671778E-03
 EXTERNAL_FIELDS_LOAD,       132 : iP,iLd,i0,i1=    7    8    7    8 ; Wght=  0.9000000000  0.1000000000
 cg2d: Sum(rhs),rhsMax =  -9.23705556488130E-14  6.71775520899619E-03
 EXTERNAL_FIELDS_LOAD,       133 : iP,iLd,i0,i1=    7    8    7    8 ; Wght=  0.8500000000  0.1500000000
 cg2d: Sum(rhs),rhsMax =   3.55271367880050E-14  6.75545902171147E-03
 EXTERNAL_FIELDS_LOAD,       134 : iP,iLd,i0,i1=    7    8    7    8 ; Wght=  0.8000000000  0.2000000000
 cg2d: Sum(rhs),rhsMax =  -3.19744231092045E-13  6.79041220880125E-03
 EXTERNAL_FIELDS_LOAD,       135 : iP,iLd,i0,i1=    7    8    7    8 ; Wght=  0.7500000000  0.2500000000
 cg2d: Sum(rhs),rhsMax =   4.26325641456060E-14  6.82229400120445E-03
 EXTERNAL_FIELDS_LOAD,       136 : iP,iLd,i0,i1=    7    8    7    8 ; Wght=  0.7000000000  0.3000000000
 cg2d: Sum(rhs),rhsMax =  -1.27897692436818E-13  6.85087866027644E-03
 EXTERNAL_FIELDS_LOAD,       137 : iP,iLd,i0,i1=    7    8    7    8 ; Wght=  0.6500000000  0.3500000000
 cg2d: Sum(rhs),rhsMax =  -2.91322521661641E-13  6.87603321784237E-03
 EXTERNAL_FIELDS_LOAD,       138 : iP,iLd,i0,i1=    7    8    7    8 ; Wght=  0.6000000000  0.4000000000
 cg2d: Sum(rhs),rhsMax =   1.70530256582424E-13  6.89771228993925E-03
 EXTERNAL_FIELDS_LOAD,       139 : iP,iLd,i0,i1=    7    8    7    8 ; Wght=  0.5500000000  0.4500000000
 cg2d: Sum(rhs),rhsMax =   2.20268248085631E-13  6.91595082207385E-03
(PID.TID 0000.0001)      cg2d_init_res =   5.49745879253033E-02
(PID.TID 0000.0001)      cg2d_iters(min,last) =      -1      29
(PID.TID 0000.0001)      cg2d_last_res =   8.29788359565339E-08
(PID.TID 0000.0001) // =======================================================
(PID.TID 0000.0001) // Begin MONITOR dynamic field statistics
(PID.TID 0000.0001) // =======================================================
(PID.TID 0000.0001) %MON time_tsnumber                =                   140
(PID.TID 0000.0001) %MON time_secondsf                =   8.4000000000000E+03
(PID.TID 0000.0001) %MON dynstat_eta_max              =   6.0504271482666E-03
(PID.TID 0000.0001) %MON dynstat_eta_min              =  -1.4142941872171E-03
(PID.TID 0000.0001) %MON dynstat_eta_mean             =  -1.1651942716104E-19
(PID.TID 0000.0001) %MON dynstat_eta_sd               =   7.9821045476738E-04
(PID.TID 0000.0001) %MON dynstat_eta_del2             =   5.6070806605951E-07
(PID.TID 0000.0001) %MON dynstat_uvel_max             =   8.0549355543441E-02
(PID.TID 0000.0001) %MON dynstat_uvel_min             =  -2.3481137583660E-02
(PID.TID 0000.0001) %MON dynstat_uvel_mean            =   7.6210056799265E-05
(PID.TID 0000.0001) %MON dynstat_uvel_sd              =   3.5519039085077E-03
(PID.TID 0000.0001) %MON dynstat_uvel_del2            =   2.6045806887142E-07
(PID.TID 0000.0001) %MON dynstat_vvel_max             =   2.4319180430248E-02
(PID.TID 0000.0001) %MON dynstat_vvel_min             =  -1.6915636637030E-02
(PID.TID 0000.0001) %MON dynstat_vvel_mean            =   1.4804200985166E-05
(PID.TID 0000.0001) %MON dynstat_vvel_sd              =   8.9678122030192E-04
(PID.TID 0000.0001) %MON dynstat_vvel_del2            =   2.1380837990602E-07
(PID.TID 0000.0001) %MON dynstat_wvel_max             =   8.7735858352753E-06
(PID.TID 0000.0001) %MON dynstat_wvel_min             =  -2.5172178262764E-05
(PID.TID 0000.0001) %MON dynstat_wvel_mean            =  -4.5600943670170E-08
(PID.TID 0000.0001) %MON dynstat_wvel_sd              =   4.1451432735686E-07
(PID.TID 0000.0001) %MON dynstat_wvel_del2            =   7.4958882218999E-10
(PID.TID 0000.0001) %MON dynstat_theta_max            =   1.6579981385963E+01
(PID.TID 0000.0001) %MON dynstat_theta_min            =   4.1845854456231E+00
(PID.TID 0000.0001) %MON dynstat_theta_mean           =   7.5988709232810E+00
(PID.TID 0000.0001) %MON dynstat_theta_sd             =   3.5909176458821E+00
(PID.TID 0000.0001) %MON dynstat_theta_del2           =   4.4357862953737E-08
(PID.TID 0000.0001) %MON dynstat_salt_max             =   3.4476101003737E+01
(PID.TID 0000.0001) %MON dynstat_salt_min             =   3.3629980172784E+01
(PID.TID 0000.0001) %MON dynstat_salt_mean            =   3.4188927552037E+01
(PID.TID 0000.0001) %MON dynstat_salt_sd              =   2.7007347253686E-01
(PID.TID 0000.0001) %MON dynstat_salt_del2            =   1.6125925376033E-09
(PID.TID 0000.0001) %MON trAdv_CFL_u_max              =   2.3901704180102E-03
(PID.TID 0000.0001) %MON trAdv_CFL_v_max              =   7.3630873306202E-04
(PID.TID 0000.0001) %MON trAdv_CFL_w_max              =   6.8901108916739E-04
(PID.TID 0000.0001) %MON advcfl_uvel_max              =   2.4113982087261E-03
(PID.TID 0000.0001) %MON advcfl_vvel_max              =   7.2616244939528E-04
(PID.TID 0000.0001) %MON advcfl_wvel_max              =   6.5666551989819E-04
(PID.TID 0000.0001) %MON advcfl_W_hf_max              =   6.8651395262084E-04
(PID.TID 0000.0001) %MON pe_b_mean                    =   3.2646303424733E-09
(PID.TID 0000.0001) %MON ke_max                       =   5.1058323933875E-03
(PID.TID 0000.0001) %MON ke_mean                      =   6.7123118345459E-06
(PID.TID 0000.0001) %MON ke_vol                       =   8.2635254160858E+14
(PID.TID 0000.0001) %MON vort_r_min                   =  -3.3229696446367E-05
(PID.TID 0000.0001) %MON vort_r_max                   =   1.6828884159567E-05
(PID.TID 0000.0001) %MON vort_a_mean                  =   6.9142466381008E-04
(PID.TID 0000.0001) %MON vort_a_sd                    =   1.4252678253375E-06
(PID.TID 0000.0001) %MON vort_p_mean                  =   6.9569812303954E-04
(PID.TID 0000.0001) %MON vort_p_sd                    =   9.4049468844385E-05
(PID.TID 0000.0001) %MON surfExpan_theta_mean         =   1.4308868928905E-13
(PID.TID 0000.0001) %MON surfExpan_salt_mean          =  -5.2258423639936E-22
(PID.TID 0000.0001) // =======================================================
(PID.TID 0000.0001) // End MONITOR dynamic field statistics
(PID.TID 0000.0001) // =======================================================
(PID.TID 0000.0001) // =======================================================
(PID.TID 0000.0001) // Begin OBCS MONITOR field statistics
(PID.TID 0000.0001) // =======================================================
(PID.TID 0000.0001) %MON obc_S_vVel_max               =   1.9918447719206E-02
(PID.TID 0000.0001) %MON obc_S_vVel_min               =  -4.5420945808341E-05
(PID.TID 0000.0001) %MON obc_S_vVel_mean              =  -1.3024524529171E-20
(PID.TID 0000.0001) %MON obc_S_vVel_sd                =   8.9166743468399E-04
(PID.TID 0000.0001) %MON obc_S_vVel_Int               =  -2.2115642650533E-11
(PID.TID 0000.0001) // =======================================================
(PID.TID 0000.0001) // End OBCS MONITOR field statistics
(PID.TID 0000.0001) // =======================================================
 EXTERNAL_FIELDS_LOAD,       140 : iP,iLd,i0,i1=    7    8    7    8 ; Wght=  0.5000000000  0.5000000000
 cg2d: Sum(rhs),rhsMax =   7.10542735760100E-14  6.93085553642273E-03
 EXTERNAL_FIELDS_LOAD,       141 : iP,iLd,i0,i1=    7    8    7    8 ; Wght=  0.4500000000  0.5500000000
 cg2d: Sum(rhs),rhsMax =   2.84217094304040E-14  6.94259572348973E-03
 EXTERNAL_FIELDS_LOAD,       142 : iP,iLd,i0,i1=    7    8    7    8 ; Wght=  0.4000000000  0.6000000000
 cg2d: Sum(rhs),rhsMax =   3.55271367880050E-13  6.95139387476363E-03
 EXTERNAL_FIELDS_LOAD,       143 : iP,iLd,i0,i1=    7    8    7    8 ; Wght=  0.3500000000  0.6500000000
 cg2d: Sum(rhs),rhsMax =  -1.42108547152020E-13  6.95751650720588E-03
 EXTERNAL_FIELDS_LOAD,       144 : iP,iLd,i0,i1=    7    8    7    8 ; Wght=  0.3000000000  0.7000000000
 cg2d: Sum(rhs),rhsMax =   2.13162820728030E-14  6.96126539851005E-03
 EXTERNAL_FIELDS_LOAD,       145 : iP,iLd,i0,i1=    7    8    7    8 ; Wght=  0.2500000000  0.7500000000
 cg2d: Sum(rhs),rhsMax =   1.49213974509621E-13  6.96296934287943E-03
 EXTERNAL_FIELDS_LOAD,       146 : iP,iLd,i0,i1=    7    8    7    8 ; Wght=  0.2000000000  0.8000000000
 cg2d: Sum(rhs),rhsMax =  -2.70006239588838E-13  6.96297645473226E-03
 EXTERNAL_FIELDS_LOAD,       147 : iP,iLd,i0,i1=    7    8    7    8 ; Wght=  0.1500000000  0.8500000000
 cg2d: Sum(rhs),rhsMax =   7.81597009336110E-14  6.96164700012565E-03
 EXTERNAL_FIELDS_LOAD,       148 : iP,iLd,i0,i1=    7    8    7    8 ; Wght=  0.1000000000  0.9000000000
 cg2d: Sum(rhs),rhsMax =   2.84217094304040E-14  6.95934669525075E-03
 EXTERNAL_FIELDS_LOAD,       149 : iP,iLd,i0,i1=    7    8    7    8 ; Wght=  0.0500000000  0.9500000000
 cg2d: Sum(rhs),rhsMax =  -1.27897692436818E-13  6.95644042454447E-03
 EXTERNAL_FIELDS_LOAD,       150 : iP,iLd,i0,i1=    7    8    8    9 ; Wght=  1.0000000000  0.0000000000
 EXTERNAL_FIELDS_LOAD, it=       150 : Reading new data, i0,i1=    8    9 (prev=    7    8 )
(PID.TID 0000.0001)  MDS_READ_FIELD: opening global file: ../input/merid_halfgauss2p5hr_272x320.bin
(PID.TID 0000.0001)  MDS_READ_FIELD: opening global file: ../input/merid_halfgauss2p5hr_272x320.bin
 cg2d: Sum(rhs),rhsMax =  -1.20792265079217E-13  6.95328633174045E-03
 EXTERNAL_FIELDS_LOAD,       151 : iP,iLd,i0,i1=    8    9    8    9 ; Wght=  0.9500000000  0.0500000000
 cg2d: Sum(rhs),rhsMax =  -1.42108547152020E-13  6.93373855596743E-03
 EXTERNAL_FIELDS_LOAD,       152 : iP,iLd,i0,i1=    8    9    8    9 ; Wght=  0.9000000000  0.1000000000
 cg2d: Sum(rhs),rhsMax =  -3.19744231092045E-13  6.88836027454453E-03
 EXTERNAL_FIELDS_LOAD,       153 : iP,iLd,i0,i1=    8    9    8    9 ; Wght=  0.8500000000  0.1500000000
 cg2d: Sum(rhs),rhsMax =   2.34479102800833E-13  6.80891924202153E-03
 EXTERNAL_FIELDS_LOAD,       154 : iP,iLd,i0,i1=    8    9    8    9 ; Wght=  0.8000000000  0.2000000000
 cg2d: Sum(rhs),rhsMax =  -7.10542735760100E-15  6.68854869108817E-03
 EXTERNAL_FIELDS_LOAD,       155 : iP,iLd,i0,i1=    8    9    8    9 ; Wght=  0.7500000000  0.2500000000
 cg2d: Sum(rhs),rhsMax =  -4.26325641456060E-13  6.52184737926048E-03
 EXTERNAL_FIELDS_LOAD,       156 : iP,iLd,i0,i1=    8    9    8    9 ; Wght=  0.7000000000  0.3000000000
 cg2d: Sum(rhs),rhsMax =   2.84217094304040E-13  6.30491073236472E-03
 EXTERNAL_FIELDS_LOAD,       157 : iP,iLd,i0,i1=    8    9    8    9 ; Wght=  0.6500000000  0.3500000000
 cg2d: Sum(rhs),rhsMax =   1.20792265079217E-13  6.03530588264705E-03
 EXTERNAL_FIELDS_LOAD,       158 : iP,iLd,i0,i1=    8    9    8    9 ; Wght=  0.6000000000  0.4000000000
 cg2d: Sum(rhs),rhsMax =   1.42108547152020E-13  5.71200254678947E-03
 EXTERNAL_FIELDS_LOAD,       159 : iP,iLd,i0,i1=    8    9    8    9 ; Wght=  0.5500000000  0.4500000000
 cg2d: Sum(rhs),rhsMax =   9.23705556488130E-14  5.33527147101375E-03
(PID.TID 0000.0001)      cg2d_init_res =   2.71855747410939E-01
(PID.TID 0000.0001)      cg2d_iters(min,last) =      -1      30
(PID.TID 0000.0001)      cg2d_last_res =   6.69781071288183E-08
(PID.TID 0000.0001) // =======================================================
(PID.TID 0000.0001) // Begin MONITOR dynamic field statistics
(PID.TID 0000.0001) // =======================================================
(PID.TID 0000.0001) %MON time_tsnumber                =                   160
(PID.TID 0000.0001) %MON time_secondsf                =   9.6000000000000E+03
(PID.TID 0000.0001) %MON dynstat_eta_max              =   4.6869048213208E-03
(PID.TID 0000.0001) %MON dynstat_eta_min              =  -1.3665910280000E-03
(PID.TID 0000.0001) %MON dynstat_eta_mean             =  -2.2440778564349E-19
(PID.TID 0000.0001) %MON dynstat_eta_sd               =   8.0768419310979E-04
(PID.TID 0000.0001) %MON dynstat_eta_del2             =   3.0558355299518E-07
(PID.TID 0000.0001) %MON dynstat_uvel_max             =   9.2681666881750E-02
(PID.TID 0000.0001) %MON dynstat_uvel_min             =  -2.9297528623805E-02
(PID.TID 0000.0001) %MON dynstat_uvel_mean            =   8.1667467595490E-05
(PID.TID 0000.0001) %MON dynstat_uvel_sd              =   4.0442819482122E-03
(PID.TID 0000.0001) %MON dynstat_uvel_del2            =   3.0777161442586E-07
(PID.TID 0000.0001) %MON dynstat_vvel_max             =   1.7228663261883E-02
(PID.TID 0000.0001) %MON dynstat_vvel_min             =  -1.1995213846500E-02
(PID.TID 0000.0001) %MON dynstat_vvel_mean            =  -1.2321859303653E-05
(PID.TID 0000.0001) %MON dynstat_vvel_sd              =   9.0762759321770E-05
(PID.TID 0000.0001) %MON dynstat_vvel_del2            =   2.4485479504102E-07
(PID.TID 0000.0001) %MON dynstat_wvel_max             =   1.3959473403094E-05
(PID.TID 0000.0001) %MON dynstat_wvel_min             =  -1.8997965450835E-05
(PID.TID 0000.0001) %MON dynstat_wvel_mean            =  -3.1135158589921E-08
(PID.TID 0000.0001) %MON dynstat_wvel_sd              =   5.1850928485280E-07
(PID.TID 0000.0001) %MON dynstat_wvel_del2            =   9.7577333559033E-10
(PID.TID 0000.0001) %MON dynstat_theta_max            =   1.6579997927713E+01
(PID.TID 0000.0001) %MON dynstat_theta_min            =   4.1845845154969E+00
(PID.TID 0000.0001) %MON dynstat_theta_mean           =   7.5988718014964E+00
(PID.TID 0000.0001) %MON dynstat_theta_sd             =   3.5909173227798E+00
(PID.TID 0000.0001) %MON dynstat_theta_del2           =   4.9431881426074E-08
(PID.TID 0000.0001) %MON dynstat_salt_max             =   3.4476101098540E+01
(PID.TID 0000.0001) %MON dynstat_salt_min             =   3.3629973434131E+01
(PID.TID 0000.0001) %MON dynstat_salt_mean            =   3.4188927497782E+01
(PID.TID 0000.0001) %MON dynstat_salt_sd              =   2.7007345301437E-01
(PID.TID 0000.0001) %MON dynstat_salt_del2            =   1.8661828525483E-09
(PID.TID 0000.0001) %MON trAdv_CFL_u_max              =   2.7764245879001E-03
(PID.TID 0000.0001) %MON trAdv_CFL_v_max              =   5.3893696527810E-04
(PID.TID 0000.0001) %MON trAdv_CFL_w_max              =   6.3305315212733E-04
(PID.TID 0000.0001) %MON advcfl_uvel_max              =   2.7746004875960E-03
(PID.TID 0000.0001) %MON advcfl_vvel_max              =   5.1444202036079E-04
(PID.TID 0000.0001) %MON advcfl_wvel_max              =   4.9559909871743E-04
(PID.TID 0000.0001) %MON advcfl_W_hf_max              =   5.1812633047731E-04
(PID.TID 0000.0001) %MON pe_b_mean                    =   3.3425842026179E-09
(PID.TID 0000.0001) %MON ke_max                       =   6.4554819367822E-03
(PID.TID 0000.0001) %MON ke_mean                      =   8.1850237405487E-06
(PID.TID 0000.0001) %MON ke_vol                       =   8.2635254160858E+14
(PID.TID 0000.0001) %MON vort_r_min                   =  -4.1237403920128E-05
(PID.TID 0000.0001) %MON vort_r_max                   =   1.9727133443830E-05
(PID.TID 0000.0001) %MON vort_a_mean                  =   6.9142466381008E-04
(PID.TID 0000.0001) %MON vort_a_sd                    =   1.4282242536299E-06
(PID.TID 0000.0001) %MON vort_p_mean                  =   6.9569812303954E-04
(PID.TID 0000.0001) %MON vort_p_sd                    =   9.4045371668074E-05
(PID.TID 0000.0001) %MON surfExpan_theta_mean         =  -5.3058581165421E-12
(PID.TID 0000.0001) %MON surfExpan_salt_mean          =   1.0114533607729E-21
(PID.TID 0000.0001) // =======================================================
(PID.TID 0000.0001) // End MONITOR dynamic field statistics
(PID.TID 0000.0001) // =======================================================
(PID.TID 0000.0001) // =======================================================
(PID.TID 0000.0001) // Begin OBCS MONITOR field statistics
(PID.TID 0000.0001) // =======================================================
(PID.TID 0000.0001) %MON obc_S_vVel_max               =   1.7228663261883E-02
(PID.TID 0000.0001) %MON obc_S_vVel_min               =  -1.9748744350014E-04
(PID.TID 0000.0001) %MON obc_S_vVel_mean              =   2.7961928022326E-20
(PID.TID 0000.0001) %MON obc_S_vVel_sd                =   7.7133650780869E-04
(PID.TID 0000.0001) %MON obc_S_vVel_Int               =   4.7479353781910E-11
(PID.TID 0000.0001) // =======================================================
(PID.TID 0000.0001) // End OBCS MONITOR field statistics
(PID.TID 0000.0001) // =======================================================
 EXTERNAL_FIELDS_LOAD,       160 : iP,iLd,i0,i1=    8    9    8    9 ; Wght=  0.5000000000  0.5000000000
 cg2d: Sum(rhs),rhsMax =  -1.27897692436818E-13  4.90656106855453E-03
 EXTERNAL_FIELDS_LOAD,       161 : iP,iLd,i0,i1=    8    9    8    9 ; Wght=  0.4500000000  0.5500000000
 cg2d: Sum(rhs),rhsMax =   2.62900812231237E-13  4.42836121597477E-03
 EXTERNAL_FIELDS_LOAD,       162 : iP,iLd,i0,i1=    8    9    8    9 ; Wght=  0.4000000000  0.6000000000
 cg2d: Sum(rhs),rhsMax =  -2.70006239588838E-13  3.90406127355847E-03
 EXTERNAL_FIELDS_LOAD,       163 : iP,iLd,i0,i1=    8    9    8    9 ; Wght=  0.3500000000  0.6500000000
 cg2d: Sum(rhs),rhsMax =   4.68958205601666E-13  3.33780749589053E-03
 EXTERNAL_FIELDS_LOAD,       164 : iP,iLd,i0,i1=    8    9    8    9 ; Wght=  0.3000000000  0.7000000000
 cg2d: Sum(rhs),rhsMax =   5.40012479177676E-13  2.73436327826739E-03
 EXTERNAL_FIELDS_LOAD,       165 : iP,iLd,i0,i1=    8    9    8    9 ; Wght=  0.2500000000  0.7500000000
 cg2d: Sum(rhs),rhsMax =   6.53699316899292E-13  2.18414873763378E-03
 EXTERNAL_FIELDS_LOAD,       166 : iP,iLd,i0,i1=    8    9    8    9 ; Wght=  0.2000000000  0.8000000000
 cg2d: Sum(rhs),rhsMax =   7.38964445190504E-13  1.94615602362965E-03
 EXTERNAL_FIELDS_LOAD,       167 : iP,iLd,i0,i1=    8    9    8    9 ; Wght=  0.1500000000  0.8500000000
 cg2d: Sum(rhs),rhsMax =   2.41584530158434E-13  1.69108378937521E-03
 EXTERNAL_FIELDS_LOAD,       168 : iP,iLd,i0,i1=    8    9    8    9 ; Wght=  0.1000000000  0.9000000000
 cg2d: Sum(rhs),rhsMax =   7.24753590475302E-13  1.53544999552466E-03
 EXTERNAL_FIELDS_LOAD,       169 : iP,iLd,i0,i1=    8    9    8    9 ; Wght=  0.0500000000  0.9500000000
 cg2d: Sum(rhs),rhsMax =  -2.41584530158434E-13  1.42726177455887E-03
 EXTERNAL_FIELDS_LOAD,       170 : iP,iLd,i0,i1=    8    9    9   10 ; Wght=  1.0000000000  0.0000000000
 EXTERNAL_FIELDS_LOAD, it=       170 : Reading new data, i0,i1=    9   10 (prev=    8    9 )
(PID.TID 0000.0001)  MDS_READ_FIELD: opening global file: ../input/merid_halfgauss2p5hr_272x320.bin
(PID.TID 0000.0001)  MDS_READ_FIELD: opening global file: ../input/merid_halfgauss2p5hr_272x320.bin
 cg2d: Sum(rhs),rhsMax =   4.26325641456060E-14  1.35554953854723E-03
 EXTERNAL_FIELDS_LOAD,       171 : iP,iLd,i0,i1=    9   10    9   10 ; Wght=  0.9500000000  0.0500000000
 cg2d: Sum(rhs),rhsMax =   1.35003119794419E-13  2.04589971529803E-03
 EXTERNAL_FIELDS_LOAD,       172 : iP,iLd,i0,i1=    9   10    9   10 ; Wght=  0.9000000000  0.1000000000
 cg2d: Sum(rhs),rhsMax =   3.62376795237651E-13  2.70412207511835E-03
 EXTERNAL_FIELDS_LOAD,       173 : iP,iLd,i0,i1=    9   10    9   10 ; Wght=  0.8500000000  0.1500000000
 cg2d: Sum(rhs),rhsMax =   1.63424829224823E-13  3.31749793244534E-03
 EXTERNAL_FIELDS_LOAD,       174 : iP,iLd,i0,i1=    9   10    9   10 ; Wght=  0.8000000000  0.2000000000
 cg2d: Sum(rhs),rhsMax =   3.19744231092045E-13  3.87504855925932E-03
 EXTERNAL_FIELDS_LOAD,       175 : iP,iLd,i0,i1=    9   10    9   10 ; Wght=  0.7500000000  0.2500000000
 cg2d: Sum(rhs),rhsMax =   1.88293824976427E-13  4.36769570223973E-03
 EXTERNAL_FIELDS_LOAD,       176 : iP,iLd,i0,i1=    9   10    9   10 ; Wght=  0.7000000000  0.3000000000
 cg2d: Sum(rhs),rhsMax =   2.70006239588838E-13  4.78834703242803E-03
 EXTERNAL_FIELDS_LOAD,       177 : iP,iLd,i0,i1=    9   10    9   10 ; Wght=  0.6500000000  0.3500000000
 cg2d: Sum(rhs),rhsMax =   2.82662782069565E-13  5.13191708418238E-03
 EXTERNAL_FIELDS_LOAD,       178 : iP,iLd,i0,i1=    9   10    9   10 ; Wght=  0.6000000000  0.4000000000
 cg2d: Sum(rhs),rhsMax =   4.13002965160558E-14  5.39529366076673E-03
 EXTERNAL_FIELDS_LOAD,       179 : iP,iLd,i0,i1=    9   10    9   10 ; Wght=  0.5500000000  0.4500000000
 cg2d: Sum(rhs),rhsMax =   9.76996261670138E-14  5.57725980706147E-03
(PID.TID 0000.0001)      cg2d_init_res =   4.82996430887234E-01
(PID.TID 0000.0001)      cg2d_iters(min,last) =      -1      34
(PID.TID 0000.0001)      cg2d_last_res =   7.62947119806283E-08
(PID.TID 0000.0001) // =======================================================
(PID.TID 0000.0001) // Begin MONITOR dynamic field statistics
(PID.TID 0000.0001) // =======================================================
(PID.TID 0000.0001) %MON time_tsnumber                =                   180
(PID.TID 0000.0001) %MON time_secondsf                =   1.0800000000000E+04
(PID.TID 0000.0001) %MON dynstat_eta_max              =   6.2201472631195E-04
(PID.TID 0000.0001) %MON dynstat_eta_min              =  -4.8429758282180E-03
(PID.TID 0000.0001) %MON dynstat_eta_mean             =  -4.6391994147453E-20
(PID.TID 0000.0001) %MON dynstat_eta_sd               =   4.9589069903305E-04
(PID.TID 0000.0001) %MON dynstat_eta_del2             =   6.2915988702730E-07
(PID.TID 0000.0001) %MON dynstat_uvel_max             =   7.4568292399099E-02
(PID.TID 0000.0001) %MON dynstat_uvel_min             =  -2.8586345243363E-02
(PID.TID 0000.0001) %MON dynstat_uvel_mean            =   3.4640075414844E-05
(PID.TID 0000.0001) %MON dynstat_uvel_sd              =   2.9670710926318E-03
(PID.TID 0000.0001) %MON dynstat_uvel_del2            =   2.7657974158227E-07
(PID.TID 0000.0001) %MON dynstat_vvel_max             =   1.8645509282792E-02
(PID.TID 0000.0001) %MON dynstat_vvel_min             =  -6.1778586153350E-02
(PID.TID 0000.0001) %MON dynstat_vvel_mean            =  -9.6044754591970E-05
(PID.TID 0000.0001) %MON dynstat_vvel_sd              =   2.6926927279721E-03
(PID.TID 0000.0001) %MON dynstat_vvel_del2            =   2.5098744407868E-07
(PID.TID 0000.0001) %MON dynstat_wvel_max             =   2.5723083311673E-05
(PID.TID 0000.0001) %MON dynstat_wvel_min             =  -1.2141264075653E-05
(PID.TID 0000.0001) %MON dynstat_wvel_mean            =   9.5523644222693E-08
(PID.TID 0000.0001) %MON dynstat_wvel_sd              =   8.1194521744041E-07
(PID.TID 0000.0001) %MON dynstat_wvel_del2            =   9.8111723118985E-10
(PID.TID 0000.0001) %MON dynstat_theta_max            =   1.6579961705354E+01
(PID.TID 0000.0001) %MON dynstat_theta_min            =   4.1845833687802E+00
(PID.TID 0000.0001) %MON dynstat_theta_mean           =   7.5988713136879E+00
(PID.TID 0000.0001) %MON dynstat_theta_sd             =   3.5909155815974E+00
(PID.TID 0000.0001) %MON dynstat_theta_del2           =   5.1913040424638E-08
(PID.TID 0000.0001) %MON dynstat_salt_max             =   3.4476101215418E+01
(PID.TID 0000.0001) %MON dynstat_salt_min             =   3.3629975370189E+01
(PID.TID 0000.0001) %MON dynstat_salt_mean            =   3.4188927528710E+01
(PID.TID 0000.0001) %MON dynstat_salt_sd              =   2.7007336695998E-01
(PID.TID 0000.0001) %MON dynstat_salt_del2            =   2.1590447133766E-09
(PID.TID 0000.0001) %MON trAdv_CFL_u_max              =   2.4756350015510E-03
(PID.TID 0000.0001) %MON trAdv_CFL_v_max              =   1.7613035324656E-03
(PID.TID 0000.0001) %MON trAdv_CFL_w_max              =   6.3367098043751E-04
(PID.TID 0000.0001) %MON advcfl_uvel_max              =   2.4288728807712E-03
(PID.TID 0000.0001) %MON advcfl_vvel_max              =   1.8446875531009E-03
(PID.TID 0000.0001) %MON advcfl_wvel_max              =   7.1238952046715E-04
(PID.TID 0000.0001) %MON advcfl_W_hf_max              =   7.4800899649051E-04
(PID.TID 0000.0001) %MON pe_b_mean                    =   1.2600016523441E-09
(PID.TID 0000.0001) %MON ke_max                       =   5.4908968653996E-03
(PID.TID 0000.0001) %MON ke_mean                      =   8.0281858751741E-06
(PID.TID 0000.0001) %MON ke_vol                       =   8.2635254160858E+14
(PID.TID 0000.0001) %MON vort_r_min                   =  -4.0378998839784E-05
(PID.TID 0000.0001) %MON vort_r_max                   =   1.8224726929323E-05
(PID.TID 0000.0001) %MON vort_a_mean                  =   6.9142466381008E-04
(PID.TID 0000.0001) %MON vort_a_sd                    =   1.4269682766009E-06
(PID.TID 0000.0001) %MON vort_p_mean                  =   6.9569812303954E-04
(PID.TID 0000.0001) %MON vort_p_sd                    =   9.4044302512220E-05
(PID.TID 0000.0001) %MON surfExpan_theta_mean         =  -1.9921481220831E-12
(PID.TID 0000.0001) %MON surfExpan_salt_mean          =  -6.4733015089469E-21
(PID.TID 0000.0001) // =======================================================
(PID.TID 0000.0001) // End MONITOR dynamic field statistics
(PID.TID 0000.0001) // =======================================================
(PID.TID 0000.0001) // =======================================================
(PID.TID 0000.0001) // Begin OBCS MONITOR field statistics
(PID.TID 0000.0001) // =======================================================
(PID.TID 0000.0001) %MON obc_S_vVel_max               =   1.4796608834476E-04
(PID.TID 0000.0001) %MON obc_S_vVel_min               =  -4.4403289077399E-02
(PID.TID 0000.0001) %MON obc_S_vVel_mean              =   4.7785882043654E-20
(PID.TID 0000.0001) %MON obc_S_vVel_sd                =   1.9878403904668E-03
(PID.TID 0000.0001) %MON obc_S_vVel_Int               =   8.1140427710125E-11
(PID.TID 0000.0001) // =======================================================
(PID.TID 0000.0001) // End OBCS MONITOR field statistics
(PID.TID 0000.0001) // =======================================================
 EXTERNAL_FIELDS_LOAD,       180 : iP,iLd,i0,i1=    9   10    9   10 ; Wght=  0.5000000000  0.5000000000
 cg2d: Sum(rhs),rhsMax =   1.66977542903624E-13  5.67838082799342E-03
 EXTERNAL_FIELDS_LOAD,       181 : iP,iLd,i0,i1=    9   10    9   10 ; Wght=  0.4500000000  0.5500000000
 cg2d: Sum(rhs),rhsMax =  -2.66453525910038E-14  5.70086474225922E-03
 EXTERNAL_FIELDS_LOAD,       182 : iP,iLd,i0,i1=    9   10    9   10 ; Wght=  0.4000000000  0.6000000000
 cg2d: Sum(rhs),rhsMax =   6.39488462184090E-14  5.64840325146581E-03
 EXTERNAL_FIELDS_LOAD,       183 : iP,iLd,i0,i1=    9   10    9   10 ; Wght=  0.3500000000  0.6500000000
 cg2d: Sum(rhs),rhsMax =   7.28306304154103E-14  5.52599896825548E-03
 EXTERNAL_FIELDS_LOAD,       184 : iP,iLd,i0,i1=    9   10    9   10 ; Wght=  0.3000000000  0.7000000000
 cg2d: Sum(rhs),rhsMax =  -2.13162820728030E-14  5.33978342633714E-03
 EXTERNAL_FIELDS_LOAD,       185 : iP,iLd,i0,i1=    9   10    9   10 ; Wght=  0.2500000000  0.7500000000
 cg2d: Sum(rhs),rhsMax =   3.55271367880050E-14  5.09682938422632E-03
 EXTERNAL_FIELDS_LOAD,       186 : iP,iLd,i0,i1=    9   10    9   10 ; Wght=  0.2000000000  0.8000000000
 cg2d: Sum(rhs),rhsMax =   2.13162820728030E-14  4.80496017186699E-03
 EXTERNAL_FIELDS_LOAD,       187 : iP,iLd,i0,i1=    9   10    9   10 ; Wght=  0.1500000000  0.8500000000
 cg2d: Sum(rhs),rhsMax =   2.84217094304040E-14  4.47255833335917E-03
 EXTERNAL_FIELDS_LOAD,       188 : iP,iLd,i0,i1=    9   10    9   10 ; Wght=  0.1000000000  0.9000000000
 cg2d: Sum(rhs),rhsMax =   2.48689957516035E-14  4.10837556034464E-03
 EXTERNAL_FIELDS_LOAD,       189 : iP,iLd,i0,i1=    9   10    9   10 ; Wght=  0.0500000000  0.9500000000
 cg2d: Sum(rhs),rhsMax =   1.42108547152020E-14  3.72134584696543E-03
 EXTERNAL_FIELDS_LOAD,       190 : iP,iLd,i0,i1=    9   10   10   11 ; Wght=  1.0000000000  0.0000000000
 EXTERNAL_FIELDS_LOAD, it=       190 : Reading new data, i0,i1=   10   11 (prev=    9   10 )
(PID.TID 0000.0001)  MDS_READ_FIELD: opening global file: ../input/merid_halfgauss2p5hr_272x320.bin
(PID.TID 0000.0001)  MDS_READ_FIELD: opening global file: ../input/merid_halfgauss2p5hr_272x320.bin
 cg2d: Sum(rhs),rhsMax =   4.26325641456060E-14  3.32040386947745E-03
 EXTERNAL_FIELDS_LOAD,       191 : iP,iLd,i0,i1=   10   11   10   11 ; Wght=  0.9500000000  0.0500000000
 cg2d: Sum(rhs),rhsMax =  -8.52651282912120E-14  2.91431073723218E-03
 EXTERNAL_FIELDS_LOAD,       192 : iP,iLd,i0,i1=   10   11   10   11 ; Wght=  0.9000000000  0.1000000000
 cg2d: Sum(rhs),rhsMax =  -1.42108547152020E-14  2.51148941408511E-03
 EXTERNAL_FIELDS_LOAD,       193 : iP,iLd,i0,i1=   10   11   10   11 ; Wght=  0.8500000000  0.1500000000
 cg2d: Sum(rhs),rhsMax =   8.52651282912120E-14  2.11987221602692E-03
 EXTERNAL_FIELDS_LOAD,       194 : iP,iLd,i0,i1=   10   11   10   11 ; Wght=  0.8000000000  0.2000000000
 cg2d: Sum(rhs),rhsMax =   1.70530256582424E-13  1.74676281001887E-03
 EXTERNAL_FIELDS_LOAD,       195 : iP,iLd,i0,i1=   10   11   10   11 ; Wght=  0.7500000000  0.2500000000
 cg2d: Sum(rhs),rhsMax =  -1.27897692436818E-13  1.39871504351659E-03
 EXTERNAL_FIELDS_LOAD,       196 : iP,iLd,i0,i1=   10   11   10   11 ; Wght=  0.7000000000  0.3000000000
 cg2d: Sum(rhs),rhsMax =  -4.83169060316868E-13  1.08143077961626E-03
 EXTERNAL_FIELDS_LOAD,       197 : iP,iLd,i0,i1=   10   11   10   11 ; Wght=  0.6500000000  0.3500000000
 cg2d: Sum(rhs),rhsMax =   3.97903932025656E-13  8.86743581577225E-04
 EXTERNAL_FIELDS_LOAD,       198 : iP,iLd,i0,i1=   10   11   10   11 ; Wght=  0.6000000000  0.4000000000
 cg2d: Sum(rhs),rhsMax =  -1.42108547152020E-14  9.22023449742221E-04
 EXTERNAL_FIELDS_LOAD,       199 : iP,iLd,i0,i1=   10   11   10   11 ; Wght=  0.5500000000  0.4500000000
 cg2d: Sum(rhs),rhsMax =   3.12638803734444E-13  9.54146814563922E-04
(PID.TID 0000.0001)      cg2d_init_res =   2.87836420553634E+00
(PID.TID 0000.0001)      cg2d_iters(min,last) =      -1      35
(PID.TID 0000.0001)      cg2d_last_res =   9.29578924866835E-08
(PID.TID 0000.0001) // =======================================================
(PID.TID 0000.0001) // Begin MONITOR dynamic field statistics
(PID.TID 0000.0001) // =======================================================
(PID.TID 0000.0001) %MON time_tsnumber                =                   200
(PID.TID 0000.0001) %MON time_secondsf                =   1.2000000000000E+04
(PID.TID 0000.0001) %MON dynstat_eta_max              =   5.9344085562667E-04
(PID.TID 0000.0001) %MON dynstat_eta_min              =  -8.2273672572505E-04
(PID.TID 0000.0001) %MON dynstat_eta_mean             =  -8.8468453955607E-20
(PID.TID 0000.0001) %MON dynstat_eta_sd               =   4.5560191059064E-04
(PID.TID 0000.0001) %MON dynstat_eta_del2             =   4.8073259516516E-08
(PID.TID 0000.0001) %MON dynstat_uvel_max             =   2.2613481423497E-02
(PID.TID 0000.0001) %MON dynstat_uvel_min             =  -1.4650451868351E-02
(PID.TID 0000.0001) %MON dynstat_uvel_mean            =  -4.5229741981250E-05
(PID.TID 0000.0001) %MON dynstat_uvel_sd              =   1.2224172838919E-04
(PID.TID 0000.0001) %MON dynstat_uvel_del2            =   2.3009604081581E-07
(PID.TID 0000.0001) %MON dynstat_vvel_max             =   4.0428795652784E-02
(PID.TID 0000.0001) %MON dynstat_vvel_min             =  -9.2048563658827E-02
(PID.TID 0000.0001) %MON dynstat_vvel_mean            =  -7.6870096370295E-05
(PID.TID 0000.0001) %MON dynstat_vvel_sd              =   3.9955159465902E-03
(PID.TID 0000.0001) %MON dynstat_vvel_del2            =   2.7126133888619E-07
(PID.TID 0000.0001) %MON dynstat_wvel_max             =   6.0150960393663E-05
(PID.TID 0000.0001) %MON dynstat_wvel_min             =  -3.5234937592910E-06
(PID.TID 0000.0001) %MON dynstat_wvel_mean            =   1.7098390407097E-07
(PID.TID 0000.0001) %MON dynstat_wvel_sd              =   1.5828175628864E-06
(PID.TID 0000.0001) %MON dynstat_wvel_del2            =   1.1817559813442E-09
(PID.TID 0000.0001) %MON dynstat_theta_max            =   1.6579821375644E+01
(PID.TID 0000.0001) %MON dynstat_theta_min            =   4.1845822444620E+00
(PID.TID 0000.0001) %MON dynstat_theta_mean           =   7.5988682969441E+00
(PID.TID 0000.0001) %MON dynstat_theta_sd             =   3.5909110746577E+00
(PID.TID 0000.0001) %MON dynstat_theta_del2           =   4.6468440704724E-08
(PID.TID 0000.0001) %MON dynstat_salt_max             =   3.4476101330014E+01
(PID.TID 0000.0001) %MON dynstat_salt_min             =   3.3629999999996E+01
(PID.TID 0000.0001) %MON dynstat_salt_mean            =   3.4188927713512E+01
(PID.TID 0000.0001) %MON dynstat_salt_sd              =   2.7007315445308E-01
(PID.TID 0000.0001) %MON dynstat_salt_del2            =   1.8331496579077E-09
(PID.TID 0000.0001) %MON trAdv_CFL_u_max              =   8.0300342906940E-04
(PID.TID 0000.0001) %MON trAdv_CFL_v_max              =   2.7381391279953E-03
(PID.TID 0000.0001) %MON trAdv_CFL_w_max              =   1.5026432541544E-03
(PID.TID 0000.0001) %MON advcfl_uvel_max              =   6.8683265952708E-04
(PID.TID 0000.0001) %MON advcfl_vvel_max              =   2.7485387775105E-03
(PID.TID 0000.0001) %MON advcfl_wvel_max              =   1.5691554885303E-03
(PID.TID 0000.0001) %MON advcfl_W_hf_max              =   1.6404807380090E-03
(PID.TID 0000.0001) %MON pe_b_mean                    =   1.0635802459965E-09
(PID.TID 0000.0001) %MON ke_max                       =   4.2743167108885E-03
(PID.TID 0000.0001) %MON ke_mean                      =   7.9764392085189E-06
(PID.TID 0000.0001) %MON ke_vol                       =   8.2635254160858E+14
(PID.TID 0000.0001) %MON vort_r_min                   =  -1.1419734244687E-05
(PID.TID 0000.0001) %MON vort_r_max                   =   1.1253847627897E-05
(PID.TID 0000.0001) %MON vort_a_mean                  =   6.9142466381008E-04
(PID.TID 0000.0001) %MON vort_a_sd                    =   1.4204911306265E-06
(PID.TID 0000.0001) %MON vort_p_mean                  =   6.9569812303954E-04
(PID.TID 0000.0001) %MON vort_p_sd                    =   9.4055256466583E-05
(PID.TID 0000.0001) %MON surfExpan_theta_mean         =   5.4822121188242E-13
(PID.TID 0000.0001) %MON surfExpan_salt_mean          =  -4.3829645633494E-21
(PID.TID 0000.0001) // =======================================================
(PID.TID 0000.0001) // End MONITOR dynamic field statistics
(PID.TID 0000.0001) // =======================================================
(PID.TID 0000.0001) // =======================================================
(PID.TID 0000.0001) // Begin OBCS MONITOR field statistics
(PID.TID 0000.0001) // =======================================================
(PID.TID 0000.0001) %MON obc_S_vVel_max               =   3.5335378806591E-04
(PID.TID 0000.0001) %MON obc_S_vVel_min               =  -9.0863090425310E-02
(PID.TID 0000.0001) %MON obc_S_vVel_mean              =   6.2722762463534E-20
(PID.TID 0000.0001) %MON obc_S_vVel_sd                =   4.0681723343879E-03
(PID.TID 0000.0001) %MON obc_S_vVel_Int               =   1.0650325066308E-10
(PID.TID 0000.0001) // =======================================================
(PID.TID 0000.0001) // End OBCS MONITOR field statistics
(PID.TID 0000.0001) // =======================================================
 EXTERNAL_FIELDS_LOAD,       200 : iP,iLd,i0,i1=   10   11   10   11 ; Wght=  0.5000000000  0.5000000000
 cg2d: Sum(rhs),rhsMax =  -5.96855898038484E-13  9.78996818563933E-04
 EXTERNAL_FIELDS_LOAD,       201 : iP,iLd,i0,i1=   10   11   10   11 ; Wght=  0.4500000000  0.5500000000
 cg2d: Sum(rhs),rhsMax =  -5.82645043323282E-13  9.96749099144959E-04
 EXTERNAL_FIELDS_LOAD,       202 : iP,iLd,i0,i1=   10   11   10   11 ; Wght=  0.4000000000  0.6000000000
 cg2d: Sum(rhs),rhsMax =   1.56319401867222E-13  1.00791540089459E-03
 EXTERNAL_FIELDS_LOAD,       203 : iP,iLd,i0,i1=   10   11   10   11 ; Wght=  0.3500000000  0.6500000000
 cg2d: Sum(rhs),rhsMax =   3.26849658449646E-13  1.02591417448299E-03
 EXTERNAL_FIELDS_LOAD,       204 : iP,iLd,i0,i1=   10   11   10   11 ; Wght=  0.3000000000  0.7000000000
 cg2d: Sum(rhs),rhsMax =  -5.40012479177676E-13  1.04575672695711E-03
 EXTERNAL_FIELDS_LOAD,       205 : iP,iLd,i0,i1=   10   11   10   11 ; Wght=  0.2500000000  0.7500000000
 cg2d: Sum(rhs),rhsMax =  -4.40536496171262E-13  1.06375160731699E-03
 EXTERNAL_FIELDS_LOAD,       206 : iP,iLd,i0,i1=   10   11   10   11 ; Wght=  0.2000000000  0.8000000000
 cg2d: Sum(rhs),rhsMax =  -1.03739239420975E-12  1.07957411953628E-03
 EXTERNAL_FIELDS_LOAD,       207 : iP,iLd,i0,i1=   10   11   10   11 ; Wght=  0.1500000000  0.8500000000
 cg2d: Sum(rhs),rhsMax =  -1.33582034322899E-12  1.09326881232178E-03
 EXTERNAL_FIELDS_LOAD,       208 : iP,iLd,i0,i1=   10   11   10   11 ; Wght=  0.1000000000  0.9000000000
 cg2d: Sum(rhs),rhsMax =   2.84217094304040E-14  1.10460077598773E-03
 EXTERNAL_FIELDS_LOAD,       209 : iP,iLd,i0,i1=   10   11   10   11 ; Wght=  0.0500000000  0.9500000000
 cg2d: Sum(rhs),rhsMax =  -2.04636307898909E-12  1.11346270771049E-03
 EXTERNAL_FIELDS_LOAD,       210 : iP,iLd,i0,i1=   10   11   11   12 ; Wght=  1.0000000000  0.0000000000
 EXTERNAL_FIELDS_LOAD, it=       210 : Reading new data, i0,i1=   11   12 (prev=   10   11 )
(PID.TID 0000.0001)  MDS_READ_FIELD: opening global file: ../input/merid_halfgauss2p5hr_272x320.bin
(PID.TID 0000.0001)  MDS_READ_FIELD: opening global file: ../input/merid_halfgauss2p5hr_272x320.bin
 cg2d: Sum(rhs),rhsMax =   4.97379915032070E-13  1.11940589558379E-03
 EXTERNAL_FIELDS_LOAD,       211 : iP,iLd,i0,i1=   11   12   11   12 ; Wght=  0.9500000000  0.0500000000
 cg2d: Sum(rhs),rhsMax =   8.24229573481716E-13  1.12207639103576E-03
 EXTERNAL_FIELDS_LOAD,       212 : iP,iLd,i0,i1=   11   12   11   12 ; Wght=  0.9000000000  0.1000000000
 cg2d: Sum(rhs),rhsMax =   1.09423581307055E-12  1.12168103065068E-03
 EXTERNAL_FIELDS_LOAD,       213 : iP,iLd,i0,i1=   11   12   11   12 ; Wght=  0.8500000000  0.1500000000
 cg2d: Sum(rhs),rhsMax =  -2.13162820728030E-13  1.30999825611837E-03
 EXTERNAL_FIELDS_LOAD,       214 : iP,iLd,i0,i1=   11   12   11   12 ; Wght=  0.8000000000  0.2000000000
 cg2d: Sum(rhs),rhsMax =   4.26325641456060E-13  1.49202667125091E-03
 EXTERNAL_FIELDS_LOAD,       215 : iP,iLd,i0,i1=   11   12   11   12 ; Wght=  0.7500000000  0.2500000000
 cg2d: Sum(rhs),rhsMax =  -7.53175299905706E-13  1.66311755604960E-03
 EXTERNAL_FIELDS_LOAD,       216 : iP,iLd,i0,i1=   11   12   11   12 ; Wght=  0.7000000000  0.3000000000
 cg2d: Sum(rhs),rhsMax =   7.10542735760100E-14  1.81904474931164E-03
 EXTERNAL_FIELDS_LOAD,       217 : iP,iLd,i0,i1=   11   12   11   12 ; Wght=  0.6500000000  0.3500000000
 cg2d: Sum(rhs),rhsMax =   3.41060513164848E-13  1.95607618809509E-03
 EXTERNAL_FIELDS_LOAD,       218 : iP,iLd,i0,i1=   11   12   11   12 ; Wght=  0.6000000000  0.4000000000
 cg2d: Sum(rhs),rhsMax =   7.81597009336110E-13  2.07103159685025E-03
 EXTERNAL_FIELDS_LOAD,       219 : iP,iLd,i0,i1=   11   12   11   12 ; Wght=  0.5500000000  0.4500000000
 cg2d: Sum(rhs),rhsMax =  -1.42108547152020E-13  2.16132570464447E-03
(PID.TID 0000.0001)      cg2d_init_res =   5.56447567936083E-01
(PID.TID 0000.0001)      cg2d_iters(min,last) =      -1      33
(PID.TID 0000.0001)      cg2d_last_res =   6.95633295465429E-08
(PID.TID 0000.0001) // =======================================================
(PID.TID 0000.0001) // Begin MONITOR dynamic field statistics
(PID.TID 0000.0001) // =======================================================
(PID.TID 0000.0001) %MON time_tsnumber                =                   220
(PID.TID 0000.0001) %MON time_secondsf                =   1.3200000000000E+04
(PID.TID 0000.0001) %MON dynstat_eta_max              =   8.8529129265728E-04
(PID.TID 0000.0001) %MON dynstat_eta_min              =  -1.8991373003486E-03
(PID.TID 0000.0001) %MON dynstat_eta_mean             =  -6.6890782259118E-20
(PID.TID 0000.0001) %MON dynstat_eta_sd               =   7.2739408626876E-04
(PID.TID 0000.0001) %MON dynstat_eta_del2             =   1.3676991336298E-07
(PID.TID 0000.0001) %MON dynstat_uvel_max             =   2.5748297601929E-02
(PID.TID 0000.0001) %MON dynstat_uvel_min             =  -6.6335008268161E-02
(PID.TID 0000.0001) %MON dynstat_uvel_mean            =  -7.3337293449193E-05
(PID.TID 0000.0001) %MON dynstat_uvel_sd              =   2.9268685107726E-03
(PID.TID 0000.0001) %MON dynstat_uvel_del2            =   3.2272995416437E-07
(PID.TID 0000.0001) %MON dynstat_vvel_max             =   3.6025094092653E-02
(PID.TID 0000.0001) %MON dynstat_vvel_min             =  -7.2746404815172E-02
(PID.TID 0000.0001) %MON dynstat_vvel_mean            =   1.4230898789425E-05
(PID.TID 0000.0001) %MON dynstat_vvel_sd              =   2.7004693465375E-03
(PID.TID 0000.0001) %MON dynstat_vvel_del2            =   2.5661615962013E-07
(PID.TID 0000.0001) %MON dynstat_wvel_max             =   5.1882755236315E-05
(PID.TID 0000.0001) %MON dynstat_wvel_min             =  -1.1654185979092E-05
(PID.TID 0000.0001) %MON dynstat_wvel_mean            =   1.3380606520623E-07
(PID.TID 0000.0001) %MON dynstat_wvel_sd              =   1.0703487507482E-06
(PID.TID 0000.0001) %MON dynstat_wvel_del2            =   1.1056911583783E-09
(PID.TID 0000.0001) %MON dynstat_theta_max            =   1.6579712166227E+01
(PID.TID 0000.0001) %MON dynstat_theta_min            =   4.1845816725782E+00
(PID.TID 0000.0001) %MON dynstat_theta_mean           =   7.5988649011191E+00
(PID.TID 0000.0001) %MON dynstat_theta_sd             =   3.5909061334782E+00
(PID.TID 0000.0001) %MON dynstat_theta_del2           =   5.2016894717821E-08
(PID.TID 0000.0001) %MON dynstat_salt_max             =   3.4476101388303E+01
(PID.TID 0000.0001) %MON dynstat_salt_min             =   3.3629999999998E+01
(PID.TID 0000.0001) %MON dynstat_salt_mean            =   3.4188927920837E+01
(PID.TID 0000.0001) %MON dynstat_salt_sd              =   2.7007292298762E-01
(PID.TID 0000.0001) %MON dynstat_salt_del2            =   1.8186592952349E-09
(PID.TID 0000.0001) %MON trAdv_CFL_u_max              =   1.9147355208898E-03
(PID.TID 0000.0001) %MON trAdv_CFL_v_max              =   2.2400084523452E-03
(PID.TID 0000.0001) %MON trAdv_CFL_w_max              =   1.3103501446621E-03
(PID.TID 0000.0001) %MON advcfl_uvel_max              =   1.9858658676284E-03
(PID.TID 0000.0001) %MON advcfl_vvel_max              =   2.1721828848962E-03
(PID.TID 0000.0001) %MON advcfl_wvel_max              =   1.3534631800778E-03
(PID.TID 0000.0001) %MON advcfl_W_hf_max              =   1.4149842337177E-03
(PID.TID 0000.0001) %MON pe_b_mean                    =   2.7110574515184E-09
(PID.TID 0000.0001) %MON ke_max                       =   5.2865702306364E-03
(PID.TID 0000.0001) %MON ke_mean                      =   7.9213852544923E-06
(PID.TID 0000.0001) %MON ke_vol                       =   8.2635254160858E+14
(PID.TID 0000.0001) %MON vort_r_min                   =  -1.6430137652073E-05
(PID.TID 0000.0001) %MON vort_r_max                   =   2.5886423200356E-05
(PID.TID 0000.0001) %MON vort_a_mean                  =   6.9142466381008E-04
(PID.TID 0000.0001) %MON vort_a_sd                    =   1.4227722023474E-06
(PID.TID 0000.0001) %MON vort_p_mean                  =   6.9569812303954E-04
(PID.TID 0000.0001) %MON vort_p_sd                    =   9.4068473468275E-05
(PID.TID 0000.0001) %MON surfExpan_theta_mean         =   9.3287691453269E-13
(PID.TID 0000.0001) %MON surfExpan_salt_mean          =   4.9561214677874E-21
(PID.TID 0000.0001) // =======================================================
(PID.TID 0000.0001) // End MONITOR dynamic field statistics
(PID.TID 0000.0001) // =======================================================
(PID.TID 0000.0001) // =======================================================
(PID.TID 0000.0001) // Begin OBCS MONITOR field statistics
(PID.TID 0000.0001) // =======================================================
(PID.TID 0000.0001) %MON obc_S_vVel_max               =   3.4227476044670E-04
(PID.TID 0000.0001) %MON obc_S_vVel_min               =  -7.2746404815172E-02
(PID.TID 0000.0001) %MON obc_S_vVel_mean              =   2.3170053756794E-20
(PID.TID 0000.0001) %MON obc_S_vVel_sd                =   3.2573221764636E-03
(PID.TID 0000.0001) %MON obc_S_vVel_Int               =   3.9342751279037E-11
(PID.TID 0000.0001) // =======================================================
(PID.TID 0000.0001) // End OBCS MONITOR field statistics
(PID.TID 0000.0001) // =======================================================
 EXTERNAL_FIELDS_LOAD,       220 : iP,iLd,i0,i1=   11   12   11   12 ; Wght=  0.5000000000  0.5000000000
 cg2d: Sum(rhs),rhsMax =  -4.40536496171262E-13  2.22499669673406E-03
 EXTERNAL_FIELDS_LOAD,       221 : iP,iLd,i0,i1=   11   12   11   12 ; Wght=  0.4500000000  0.5500000000
 cg2d: Sum(rhs),rhsMax =   1.63424829224823E-13  2.26071992635343E-03
 EXTERNAL_FIELDS_LOAD,       222 : iP,iLd,i0,i1=   11   12   11   12 ; Wght=  0.4000000000  0.6000000000
 cg2d: Sum(rhs),rhsMax =   4.26325641456060E-13  2.26780721931030E-03
 EXTERNAL_FIELDS_LOAD,       223 : iP,iLd,i0,i1=   11   12   11   12 ; Wght=  0.3500000000  0.6500000000
 cg2d: Sum(rhs),rhsMax =  -2.70006239588838E-13  2.24619239287448E-03
 EXTERNAL_FIELDS_LOAD,       224 : iP,iLd,i0,i1=   11   12   11   12 ; Wght=  0.3000000000  0.7000000000
 cg2d: Sum(rhs),rhsMax =   2.70006239588838E-13  2.19640387608552E-03
 EXTERNAL_FIELDS_LOAD,       225 : iP,iLd,i0,i1=   11   12   11   12 ; Wght=  0.2500000000  0.7500000000
 cg2d: Sum(rhs),rhsMax =   7.67386154620908E-13  2.11952556002170E-03
 EXTERNAL_FIELDS_LOAD,       226 : iP,iLd,i0,i1=   11   12   11   12 ; Wght=  0.2000000000  0.8000000000
 cg2d: Sum(rhs),rhsMax =   1.13686837721616E-13  2.01714721261720E-03
 EXTERNAL_FIELDS_LOAD,       227 : iP,iLd,i0,i1=   11   12   11   12 ; Wght=  0.1500000000  0.8500000000
 cg2d: Sum(rhs),rhsMax =  -2.84217094304040E-13  1.89130597033158E-03
 EXTERNAL_FIELDS_LOAD,       228 : iP,iLd,i0,i1=   11   12   11   12 ; Wght=  0.1000000000  0.9000000000
 cg2d: Sum(rhs),rhsMax =   2.70006239588838E-13  1.74442055660892E-03
 EXTERNAL_FIELDS_LOAD,       229 : iP,iLd,i0,i1=   11   12   11   12 ; Wght=  0.0500000000  0.9500000000
 cg2d: Sum(rhs),rhsMax =   8.52651282912120E-14  1.57921997737548E-03
 EXTERNAL_FIELDS_LOAD,       230 : iP,iLd,i0,i1=   11   12   12   13 ; Wght=  1.0000000000  0.0000000000
 EXTERNAL_FIELDS_LOAD, it=       230 : Reading new data, i0,i1=   12   13 (prev=   11   12 )
(PID.TID 0000.0001)  MDS_READ_FIELD: opening global file: ../input/merid_halfgauss2p5hr_272x320.bin
(PID.TID 0000.0001)  MDS_READ_FIELD: opening global file: ../input/merid_halfgauss2p5hr_272x320.bin
 cg2d: Sum(rhs),rhsMax =  -5.54223333892878E-13  1.39866850625605E-03
 EXTERNAL_FIELDS_LOAD,       231 : iP,iLd,i0,i1=   12   13   12   13 ; Wght=  0.9500000000  0.0500000000
 cg2d: Sum(rhs),rhsMax =  -1.06581410364015E-12  1.20588879230308E-03
 EXTERNAL_FIELDS_LOAD,       232 : iP,iLd,i0,i1=   12   13   12   13 ; Wght=  0.9000000000  0.1000000000
 cg2d: Sum(rhs),rhsMax =  -7.95807864051312E-13  1.00408490380713E-03
 EXTERNAL_FIELDS_LOAD,       233 : iP,iLd,i0,i1=   12   13   12   13 ; Wght=  0.8500000000  0.1500000000
 cg2d: Sum(rhs),rhsMax =   2.98427949019242E-13  8.93712896556931E-04
 EXTERNAL_FIELDS_LOAD,       234 : iP,iLd,i0,i1=   12   13   12   13 ; Wght=  0.8000000000  0.2000000000
 cg2d: Sum(rhs),rhsMax =  -8.38440428196918E-13  8.48556608871390E-04
 EXTERNAL_FIELDS_LOAD,       235 : iP,iLd,i0,i1=   12   13   12   13 ; Wght=  0.7500000000  0.2500000000
 cg2d: Sum(rhs),rhsMax =   5.68434188608080E-14  7.97983264995335E-04
 EXTERNAL_FIELDS_LOAD,       236 : iP,iLd,i0,i1=   12   13   12   13 ; Wght=  0.7000000000  0.3000000000
 cg2d: Sum(rhs),rhsMax =  -1.09423581307055E-12  7.42292735104142E-04
 EXTERNAL_FIELDS_LOAD,       237 : iP,iLd,i0,i1=   12   13   12   13 ; Wght=  0.6500000000  0.3500000000
 cg2d: Sum(rhs),rhsMax =   5.68434188608080E-14  6.86215376047570E-04
 EXTERNAL_FIELDS_LOAD,       238 : iP,iLd,i0,i1=   12   13   12   13 ; Wght=  0.6000000000  0.4000000000
 cg2d: Sum(rhs),rhsMax =   1.29318777908338E-12  6.47087796267648E-04
 EXTERNAL_FIELDS_LOAD,       239 : iP,iLd,i0,i1=   12   13   12   13 ; Wght=  0.5500000000  0.4500000000
 cg2d: Sum(rhs),rhsMax =   1.56319401867222E-13  6.05266049617876E-04
(PID.TID 0000.0001)      cg2d_init_res =   4.34725020628295E+00
(PID.TID 0000.0001)      cg2d_iters(min,last) =      -1      38
(PID.TID 0000.0001)      cg2d_last_res =   7.55813920233859E-08
(PID.TID 0000.0001) // =======================================================
(PID.TID 0000.0001) // Begin MONITOR dynamic field statistics
(PID.TID 0000.0001) // =======================================================
(PID.TID 0000.0001) %MON time_tsnumber                =                   240
(PID.TID 0000.0001) %MON time_secondsf                =   1.4400000000000E+04
(PID.TID 0000.0001) %MON dynstat_eta_max              =   5.0549835472221E-04
(PID.TID 0000.0001) %MON dynstat_eta_min              =  -4.5774403203885E-04
(PID.TID 0000.0001) %MON dynstat_eta_mean             =  -4.9628644901926E-20
(PID.TID 0000.0001) %MON dynstat_eta_sd               =   2.6009182320073E-04
(PID.TID 0000.0001) %MON dynstat_eta_del2             =   7.9878775861421E-08
(PID.TID 0000.0001) %MON dynstat_uvel_max             =   3.5681046518008E-02
(PID.TID 0000.0001) %MON dynstat_uvel_min             =  -9.1582416125826E-02
(PID.TID 0000.0001) %MON dynstat_uvel_mean            =  -2.4217309990968E-05
(PID.TID 0000.0001) %MON dynstat_uvel_sd              =   3.9493989552935E-03
(PID.TID 0000.0001) %MON dynstat_uvel_del2            =   4.1740979700020E-07
(PID.TID 0000.0001) %MON dynstat_vvel_max             =   1.8437738901988E-02
(PID.TID 0000.0001) %MON dynstat_vvel_min             =  -1.7586852367310E-02
(PID.TID 0000.0001) %MON dynstat_vvel_mean            =   9.4020508162014E-05
(PID.TID 0000.0001) %MON dynstat_vvel_sd              =   3.6740388919225E-04
(PID.TID 0000.0001) %MON dynstat_vvel_del2            =   2.7178382795006E-07
(PID.TID 0000.0001) %MON dynstat_wvel_max             =   2.7404708281857E-05
(PID.TID 0000.0001) %MON dynstat_wvel_min             =  -1.6500464707282E-05
(PID.TID 0000.0001) %MON dynstat_wvel_mean            =   1.1007006590054E-08
(PID.TID 0000.0001) %MON dynstat_wvel_sd              =   7.3180947659514E-07
(PID.TID 0000.0001) %MON dynstat_wvel_del2            =   1.0680603797500E-09
(PID.TID 0000.0001) %MON dynstat_theta_max            =   1.6579663457776E+01
(PID.TID 0000.0001) %MON dynstat_theta_min            =   4.1845739796835E+00
(PID.TID 0000.0001) %MON dynstat_theta_mean           =   7.5988633261417E+00
(PID.TID 0000.0001) %MON dynstat_theta_sd             =   3.5909031903094E+00
(PID.TID 0000.0001) %MON dynstat_theta_del2           =   5.9862891801149E-08
(PID.TID 0000.0001) %MON dynstat_salt_max             =   3.4476102172399E+01
(PID.TID 0000.0001) %MON dynstat_salt_min             =   3.3629999999998E+01
(PID.TID 0000.0001) %MON dynstat_salt_mean            =   3.4188928017517E+01
(PID.TID 0000.0001) %MON dynstat_salt_sd              =   2.7007278343071E-01
(PID.TID 0000.0001) %MON dynstat_salt_del2            =   1.9856458702943E-09
(PID.TID 0000.0001) %MON trAdv_CFL_u_max              =   2.7462357700027E-03
(PID.TID 0000.0001) %MON trAdv_CFL_v_max              =   8.8352879708580E-04
(PID.TID 0000.0001) %MON trAdv_CFL_w_max              =   7.3352145329150E-04
(PID.TID 0000.0001) %MON advcfl_uvel_max              =   2.7417031588401E-03
(PID.TID 0000.0001) %MON advcfl_vvel_max              =   5.5054460740484E-04
(PID.TID 0000.0001) %MON advcfl_wvel_max              =   7.1490543343975E-04
(PID.TID 0000.0001) %MON advcfl_W_hf_max              =   7.4740113495973E-04
(PID.TID 0000.0001) %MON pe_b_mean                    =   3.4661917739489E-10
(PID.TID 0000.0001) %MON ke_max                       =   6.3070913787909E-03
(PID.TID 0000.0001) %MON ke_mean                      =   7.8709816362676E-06
(PID.TID 0000.0001) %MON ke_vol                       =   8.2635254160858E+14
(PID.TID 0000.0001) %MON vort_r_min                   =  -2.3275601477413E-05
(PID.TID 0000.0001) %MON vort_r_max                   =   4.5146872676074E-05
(PID.TID 0000.0001) %MON vort_a_mean                  =   6.9142466381008E-04
(PID.TID 0000.0001) %MON vort_a_sd                    =   1.4284438278729E-06
(PID.TID 0000.0001) %MON vort_p_mean                  =   6.9569812303954E-04
(PID.TID 0000.0001) %MON vort_p_sd                    =   9.4077799351443E-05
(PID.TID 0000.0001) %MON surfExpan_theta_mean         =  -2.0283294016347E-12
(PID.TID 0000.0001) %MON surfExpan_salt_mean          =   1.4834649291337E-21
(PID.TID 0000.0001) // =======================================================
(PID.TID 0000.0001) // End MONITOR dynamic field statistics
(PID.TID 0000.0001) // =======================================================
(PID.TID 0000.0001) // =======================================================
(PID.TID 0000.0001) // Begin OBCS MONITOR field statistics
(PID.TID 0000.0001) // =======================================================
(PID.TID 0000.0001) %MON obc_S_vVel_max               =   1.1418807074706E-04
(PID.TID 0000.0001) %MON obc_S_vVel_min               =  -6.9374276183680E-03
(PID.TID 0000.0001) %MON obc_S_vVel_mean              =  -9.9844226591496E-21
(PID.TID 0000.0001) %MON obc_S_vVel_sd                =   3.1186300344722E-04
(PID.TID 0000.0001) %MON obc_S_vVel_Int               =  -1.6953549675236E-11
(PID.TID 0000.0001) // =======================================================
(PID.TID 0000.0001) // End OBCS MONITOR field statistics
(PID.TID 0000.0001) // =======================================================
 EXTERNAL_FIELDS_LOAD,       240 : iP,iLd,i0,i1=   12   13   12   13 ; Wght=  0.5000000000  0.5000000000
 cg2d: Sum(rhs),rhsMax =   6.96331881044898E-13  5.79234596351950E-04
 EXTERNAL_FIELDS_LOAD,       241 : iP,iLd,i0,i1=   12   13   12   13 ; Wght=  0.4500000000  0.5500000000
 cg2d: Sum(rhs),rhsMax =  -1.56319401867222E-13  7.37956093015849E-04
 EXTERNAL_FIELDS_LOAD,       242 : iP,iLd,i0,i1=   12   13   12   13 ; Wght=  0.4000000000  0.6000000000
 cg2d: Sum(rhs),rhsMax =   3.33955085807247E-13  8.83031307200510E-04
 EXTERNAL_FIELDS_LOAD,       243 : iP,iLd,i0,i1=   12   13   12   13 ; Wght=  0.3500000000  0.6500000000
 cg2d: Sum(rhs),rhsMax =  -2.09610107049230E-13  1.01397866694367E-03
 EXTERNAL_FIELDS_LOAD,       244 : iP,iLd,i0,i1=   12   13   12   13 ; Wght=  0.3000000000  0.7000000000
 cg2d: Sum(rhs),rhsMax =   1.49324996812084E-14  1.13067613525219E-03
 EXTERNAL_FIELDS_LOAD,       245 : iP,iLd,i0,i1=   12   13   12   13 ; Wght=  0.2500000000  0.7500000000
 cg2d: Sum(rhs),rhsMax =  -1.15463194561016E-13  1.23334003371339E-03
 EXTERNAL_FIELDS_LOAD,       246 : iP,iLd,i0,i1=   12   13   12   13 ; Wght=  0.2000000000  0.8000000000
 cg2d: Sum(rhs),rhsMax =  -1.49213974509621E-13  1.32249625554344E-03
 EXTERNAL_FIELDS_LOAD,       247 : iP,iLd,i0,i1=   12   13   12   13 ; Wght=  0.1500000000  0.8500000000
 cg2d: Sum(rhs),rhsMax =   5.68434188608080E-14  1.39894492026601E-03
 EXTERNAL_FIELDS_LOAD,       248 : iP,iLd,i0,i1=   12   13   12   13 ; Wght=  0.1000000000  0.9000000000
 cg2d: Sum(rhs),rhsMax =   2.13162820728030E-14  1.46371965464832E-03
 EXTERNAL_FIELDS_LOAD,       249 : iP,iLd,i0,i1=   12   13   12   13 ; Wght=  0.0500000000  0.9500000000
 cg2d: Sum(rhs),rhsMax =  -3.19744231092045E-13  1.51804278184986E-03
 EXTERNAL_FIELDS_LOAD,       250 : iP,iLd,i0,i1=   12   13   13   14 ; Wght=  1.0000000000  0.0000000000
 EXTERNAL_FIELDS_LOAD, it=       250 : Reading new data, i0,i1=   13   14 (prev=   12   13 )
(PID.TID 0000.0001)  MDS_READ_FIELD: opening global file: ../input/merid_halfgauss2p5hr_272x320.bin
(PID.TID 0000.0001)  MDS_READ_FIELD: opening global file: ../input/merid_halfgauss2p5hr_272x320.bin
 cg2d: Sum(rhs),rhsMax =   5.96855898038484E-13  1.56327776093911E-03
 EXTERNAL_FIELDS_LOAD,       251 : iP,iLd,i0,i1=   13   14   13   14 ; Wght=  0.9500000000  0.0500000000
 cg2d: Sum(rhs),rhsMax =   4.26325641456060E-14  1.60088024231545E-03
 EXTERNAL_FIELDS_LOAD,       252 : iP,iLd,i0,i1=   13   14   13   14 ; Wght=  0.9000000000  0.1000000000
 cg2d: Sum(rhs),rhsMax =  -7.81597009336110E-14  1.63234908933135E-03
 EXTERNAL_FIELDS_LOAD,       253 : iP,iLd,i0,i1=   13   14   13   14 ; Wght=  0.8500000000  0.1500000000
 cg2d: Sum(rhs),rhsMax =   7.10542735760100E-15  1.65917866667639E-03
 EXTERNAL_FIELDS_LOAD,       254 : iP,iLd,i0,i1=   13   14   13   14 ; Wght=  0.8000000000  0.2000000000
 cg2d: Sum(rhs),rhsMax =  -5.25801624462474E-13  1.68281361221147E-03
 EXTERNAL_FIELDS_LOAD,       255 : iP,iLd,i0,i1=   13   14   13   14 ; Wght=  0.7500000000  0.2500000000
 cg2d: Sum(rhs),rhsMax =  -2.20268248085631E-13  1.70460719523081E-03
 EXTERNAL_FIELDS_LOAD,       256 : iP,iLd,i0,i1=   13   14   13   14 ; Wght=  0.7000000000  0.3000000000
 cg2d: Sum(rhs),rhsMax =  -8.52651282912120E-14  1.72578422439039E-03
 EXTERNAL_FIELDS_LOAD,       257 : iP,iLd,i0,i1=   13   14   13   14 ; Wght=  0.6500000000  0.3500000000
 cg2d: Sum(rhs),rhsMax =  -5.68434188608080E-14  1.74740930748603E-03
 EXTERNAL_FIELDS_LOAD,       258 : iP,iLd,i0,i1=   13   14   13   14 ; Wght=  0.6000000000  0.4000000000
 cg2d: Sum(rhs),rhsMax =  -4.40536496171262E-13  1.77036108805041E-03
 EXTERNAL_FIELDS_LOAD,       259 : iP,iLd,i0,i1=   13   14   13   14 ; Wght=  0.5500000000  0.4500000000
 cg2d: Sum(rhs),rhsMax =  -1.56319401867222E-13  1.79531289585049E-03
(PID.TID 0000.0001)      cg2d_init_res =   1.17013530934020E+00
(PID.TID 0000.0001)      cg2d_iters(min,last) =      -1      35
(PID.TID 0000.0001)      cg2d_last_res =   8.72629601639146E-08
(PID.TID 0000.0001) // =======================================================
(PID.TID 0000.0001) // Begin MONITOR dynamic field statistics
(PID.TID 0000.0001) // =======================================================
(PID.TID 0000.0001) %MON time_tsnumber                =                   260
(PID.TID 0000.0001) %MON time_secondsf                =   1.5600000000000E+04
(PID.TID 0000.0001) %MON dynstat_eta_max              =   1.5831053035254E-03
(PID.TID 0000.0001) %MON dynstat_eta_min              =  -7.8245594164940E-04
(PID.TID 0000.0001) %MON dynstat_eta_mean             =   2.8050973205436E-20
(PID.TID 0000.0001) %MON dynstat_eta_sd               =   5.2559900835866E-04
(PID.TID 0000.0001) %MON dynstat_eta_del2             =   7.4869062260545E-08
(PID.TID 0000.0001) %MON dynstat_uvel_max             =   2.7716819137147E-02
(PID.TID 0000.0001) %MON dynstat_uvel_min             =  -6.3767952593846E-02
(PID.TID 0000.0001) %MON dynstat_uvel_mean            =   5.3722869027249E-05
(PID.TID 0000.0001) %MON dynstat_uvel_sd              =   2.4078945732710E-03
(PID.TID 0000.0001) %MON dynstat_uvel_del2            =   4.1405213277857E-07
(PID.TID 0000.0001) %MON dynstat_vvel_max             =   7.0943941410740E-02
(PID.TID 0000.0001) %MON dynstat_vvel_min             =  -2.6816302227893E-02
(PID.TID 0000.0001) %MON dynstat_vvel_mean            =   7.2217905658812E-05
(PID.TID 0000.0001) %MON dynstat_vvel_sd              =   3.1384576469579E-03
(PID.TID 0000.0001) %MON dynstat_vvel_del2            =   3.2597874935209E-07
(PID.TID 0000.0001) %MON dynstat_wvel_max             =   5.2275056566367E-06
(PID.TID 0000.0001) %MON dynstat_wvel_min             =  -4.1054089293487E-05
(PID.TID 0000.0001) %MON dynstat_wvel_mean            =  -1.1830897924627E-07
(PID.TID 0000.0001) %MON dynstat_wvel_sd              =   1.0960835080244E-06
(PID.TID 0000.0001) %MON dynstat_wvel_del2            =   1.1937473206992E-09
(PID.TID 0000.0001) %MON dynstat_theta_max            =   1.6579655351689E+01
(PID.TID 0000.0001) %MON dynstat_theta_min            =   4.1845732230738E+00
(PID.TID 0000.0001) %MON dynstat_theta_mean           =   7.5988645773080E+00
(PID.TID 0000.0001) %MON dynstat_theta_sd             =   3.5909033201851E+00
(PID.TID 0000.0001) %MON dynstat_theta_del2           =   5.8453815850359E-08
(PID.TID 0000.0001) %MON dynstat_salt_max             =   3.4476102249516E+01
(PID.TID 0000.0001) %MON dynstat_salt_min             =   3.3629999999998E+01
(PID.TID 0000.0001) %MON dynstat_salt_mean            =   3.4188927941869E+01
(PID.TID 0000.0001) %MON dynstat_salt_sd              =   2.7007278410049E-01
(PID.TID 0000.0001) %MON dynstat_salt_del2            =   1.9594185709513E-09
(PID.TID 0000.0001) %MON trAdv_CFL_u_max              =   2.1387248785998E-03
(PID.TID 0000.0001) %MON trAdv_CFL_v_max              =   2.0471908214675E-03
(PID.TID 0000.0001) %MON trAdv_CFL_w_max              =   1.0956735052469E-03
(PID.TID 0000.0001) %MON advcfl_uvel_max              =   2.0615269774743E-03
(PID.TID 0000.0001) %MON advcfl_vvel_max              =   2.1183619411986E-03
(PID.TID 0000.0001) %MON advcfl_wvel_max              =   1.0709762424388E-03
(PID.TID 0000.0001) %MON advcfl_W_hf_max              =   1.1196569807315E-03
(PID.TID 0000.0001) %MON pe_b_mean                    =   1.4154947521406E-09
(PID.TID 0000.0001) %MON ke_max                       =   5.1937185470494E-03
(PID.TID 0000.0001) %MON ke_mean                      =   7.8197563540167E-06
(PID.TID 0000.0001) %MON ke_vol                       =   8.2635254160858E+14
(PID.TID 0000.0001) %MON vort_r_min                   =  -1.9015709613315E-05
(PID.TID 0000.0001) %MON vort_r_max                   =   3.4270922406676E-05
(PID.TID 0000.0001) %MON vort_a_mean                  =   6.9142466381008E-04
(PID.TID 0000.0001) %MON vort_a_sd                    =   1.4254709586811E-06
(PID.TID 0000.0001) %MON vort_p_mean                  =   6.9569812303954E-04
(PID.TID 0000.0001) %MON vort_p_sd                    =   9.4077542134561E-05
(PID.TID 0000.0001) %MON surfExpan_theta_mean         =  -7.8529626822775E-13
(PID.TID 0000.0001) %MON surfExpan_salt_mean          =   1.1935149657121E-20
(PID.TID 0000.0001) // =======================================================
(PID.TID 0000.0001) // End MONITOR dynamic field statistics
(PID.TID 0000.0001) // =======================================================
(PID.TID 0000.0001) // =======================================================
(PID.TID 0000.0001) // Begin OBCS MONITOR field statistics
(PID.TID 0000.0001) // =======================================================
(PID.TID 0000.0001) %MON obc_S_vVel_max               =   6.3068942379796E-02
(PID.TID 0000.0001) %MON obc_S_vVel_min               =  -2.4977180505572E-04
(PID.TID 0000.0001) %MON obc_S_vVel_mean              =   6.3821216339489E-20
(PID.TID 0000.0001) %MON obc_S_vVel_sd                =   2.8237802742648E-03
(PID.TID 0000.0001) %MON obc_S_vVel_Int               =   1.0836842534445E-10
(PID.TID 0000.0001) // =======================================================
(PID.TID 0000.0001) // End OBCS MONITOR field statistics
(PID.TID 0000.0001) // =======================================================
 EXTERNAL_FIELDS_LOAD,       260 : iP,iLd,i0,i1=   13   14   13   14 ; Wght=  0.5000000000  0.5000000000
 cg2d: Sum(rhs),rhsMax =  -3.12638803734444E-13  1.82272005538362E-03
 EXTERNAL_FIELDS_LOAD,       261 : iP,iLd,i0,i1=   13   14   13   14 ; Wght=  0.4500000000  0.5500000000
 cg2d: Sum(rhs),rhsMax =  -4.26325641456060E-13  1.85281390435749E-03
 EXTERNAL_FIELDS_LOAD,       262 : iP,iLd,i0,i1=   13   14   13   14 ; Wght=  0.4000000000  0.6000000000
 cg2d: Sum(rhs),rhsMax =  -4.68958205601666E-13  1.88560238763726E-03
 EXTERNAL_FIELDS_LOAD,       263 : iP,iLd,i0,i1=   13   14   13   14 ; Wght=  0.3500000000  0.6500000000
 cg2d: Sum(rhs),rhsMax =  -1.27897692436818E-13  1.92087691755678E-03
 EXTERNAL_FIELDS_LOAD,       264 : iP,iLd,i0,i1=   13   14   13   14 ; Wght=  0.3000000000  0.7000000000
 cg2d: Sum(rhs),rhsMax =   4.26325641456060E-14  1.95822503274279E-03
 EXTERNAL_FIELDS_LOAD,       265 : iP,iLd,i0,i1=   13   14   13   14 ; Wght=  0.2500000000  0.7500000000
 cg2d: Sum(rhs),rhsMax =   5.68434188608080E-14  1.99704824846153E-03
 EXTERNAL_FIELDS_LOAD,       266 : iP,iLd,i0,i1=   13   14   13   14 ; Wght=  0.2000000000  0.8000000000
 cg2d: Sum(rhs),rhsMax =   1.42108547152020E-13  2.03658437817224E-03
 EXTERNAL_FIELDS_LOAD,       267 : iP,iLd,i0,i1=   13   14   13   14 ; Wght=  0.1500000000  0.8500000000
 cg2d: Sum(rhs),rhsMax =   5.11590769747272E-13  2.07593351521556E-03
 EXTERNAL_FIELDS_LOAD,       268 : iP,iLd,i0,i1=   13   14   13   14 ; Wght=  0.1000000000  0.9000000000
 cg2d: Sum(rhs),rhsMax =   7.24753590475302E-13  2.11408680473103E-03
 EXTERNAL_FIELDS_LOAD,       269 : iP,iLd,i0,i1=   13   14   13   14 ; Wght=  0.0500000000  0.9500000000
 cg2d: Sum(rhs),rhsMax =  -2.55795384873636E-13  2.14995710136480E-03
 EXTERNAL_FIELDS_LOAD,       270 : iP,iLd,i0,i1=   13   14   14   15 ; Wght=  1.0000000000  0.0000000000
 EXTERNAL_FIELDS_LOAD, it=       270 : Reading new data, i0,i1=   14   15 (prev=   13   14 )
(PID.TID 0000.0001)  MDS_READ_FIELD: opening global file: ../input/merid_halfgauss2p5hr_272x320.bin
(PID.TID 0000.0001)  MDS_READ_FIELD: opening global file: ../input/merid_halfgauss2p5hr_272x320.bin
 cg2d: Sum(rhs),rhsMax =  -5.11590769747272E-13  2.18241060535906E-03
 EXTERNAL_FIELDS_LOAD,       271 : iP,iLd,i0,i1=   14   15   14   15 ; Wght=  0.9500000000  0.0500000000
 cg2d: Sum(rhs),rhsMax =   3.12638803734444E-13  2.21029859294304E-03
 EXTERNAL_FIELDS_LOAD,       272 : iP,iLd,i0,i1=   14   15   14   15 ; Wght=  0.9000000000  0.1000000000
 cg2d: Sum(rhs),rhsMax =   2.13162820728030E-13  2.23248839979919E-03
 EXTERNAL_FIELDS_LOAD,       273 : iP,iLd,i0,i1=   14   15   14   15 ; Wght=  0.8500000000  0.1500000000
 cg2d: Sum(rhs),rhsMax =  -1.27897692436818E-13  2.24789288841897E-03
 EXTERNAL_FIELDS_LOAD,       274 : iP,iLd,i0,i1=   14   15   14   15 ; Wght=  0.8000000000  0.2000000000
 cg2d: Sum(rhs),rhsMax =   4.40536496171262E-13  2.25549771577903E-03
 EXTERNAL_FIELDS_LOAD,       275 : iP,iLd,i0,i1=   14   15   14   15 ; Wght=  0.7500000000  0.2500000000
 cg2d: Sum(rhs),rhsMax =  -2.84217094304040E-14  2.25439831618965E-03
 EXTERNAL_FIELDS_LOAD,       276 : iP,iLd,i0,i1=   14   15   14   15 ; Wght=  0.7000000000  0.3000000000
 cg2d: Sum(rhs),rhsMax =  -4.40536496171262E-13  2.24378745057409E-03
 EXTERNAL_FIELDS_LOAD,       277 : iP,iLd,i0,i1=   14   15   14   15 ; Wght=  0.6500000000  0.3500000000
 cg2d: Sum(rhs),rhsMax =  -2.13162820728030E-13  2.22299902230647E-03
 EXTERNAL_FIELDS_LOAD,       278 : iP,iLd,i0,i1=   14   15   14   15 ; Wght=  0.6000000000  0.4000000000
 cg2d: Sum(rhs),rhsMax =  -1.13686837721616E-13  2.19152015018732E-03
 EXTERNAL_FIELDS_LOAD,       279 : iP,iLd,i0,i1=   14   15   14   15 ; Wght=  0.5500000000  0.4500000000
 cg2d: Sum(rhs),rhsMax =  -6.82121026329696E-13  2.14899754731536E-03
(PID.TID 0000.0001)      cg2d_init_res =   6.15992309670526E-01
(PID.TID 0000.0001)      cg2d_iters(min,last) =      -1      34
(PID.TID 0000.0001)      cg2d_last_res =   6.68373583034725E-08
(PID.TID 0000.0001) // =======================================================
(PID.TID 0000.0001) // Begin MONITOR dynamic field statistics
(PID.TID 0000.0001) // =======================================================
(PID.TID 0000.0001) %MON time_tsnumber                =                   280
(PID.TID 0000.0001) %MON time_secondsf                =   1.6800000000000E+04
(PID.TID 0000.0001) %MON dynstat_eta_max              =   1.8924780511562E-03
(PID.TID 0000.0001) %MON dynstat_eta_min              =  -1.1057360308108E-03
(PID.TID 0000.0001) %MON dynstat_eta_mean             =  -5.1786412071575E-20
(PID.TID 0000.0001) %MON dynstat_eta_sd               =   6.5637762203378E-04
(PID.TID 0000.0001) %MON dynstat_eta_del2             =   1.0358716328594E-07
(PID.TID 0000.0001) %MON dynstat_uvel_max             =   1.6798774916650E-02
(PID.TID 0000.0001) %MON dynstat_uvel_min             =  -1.7757399871762E-02
(PID.TID 0000.0001) %MON dynstat_uvel_mean            =   6.9894171797279E-05
(PID.TID 0000.0001) %MON dynstat_uvel_sd              =   7.0286380040915E-04
(PID.TID 0000.0001) %MON dynstat_uvel_del2            =   3.5056957029647E-07
(PID.TID 0000.0001) %MON dynstat_vvel_max             =   9.1002769264576E-02
(PID.TID 0000.0001) %MON dynstat_vvel_min             =  -2.9889375756560E-02
(PID.TID 0000.0001) %MON dynstat_vvel_mean            =  -3.6647648397275E-05
(PID.TID 0000.0001) %MON dynstat_vvel_sd              =   3.8827794721447E-03
(PID.TID 0000.0001) %MON dynstat_vvel_del2            =   3.6679597812410E-07
(PID.TID 0000.0001) %MON dynstat_wvel_max             =   7.2849873782805E-06
(PID.TID 0000.0001) %MON dynstat_wvel_min             =  -4.6185791812464E-05
(PID.TID 0000.0001) %MON dynstat_wvel_mean            =  -1.7132104790966E-07
(PID.TID 0000.0001) %MON dynstat_wvel_sd              =   1.4837968858611E-06
(PID.TID 0000.0001) %MON dynstat_wvel_del2            =   1.3719043297184E-09
(PID.TID 0000.0001) %MON dynstat_theta_max            =   1.6579686143774E+01
(PID.TID 0000.0001) %MON dynstat_theta_min            =   4.1845829545823E+00
(PID.TID 0000.0001) %MON dynstat_theta_mean           =   7.5988678204408E+00
(PID.TID 0000.0001) %MON dynstat_theta_sd             =   3.5909055861212E+00
(PID.TID 0000.0001) %MON dynstat_theta_del2           =   5.0155868310410E-08
(PID.TID 0000.0001) %MON dynstat_salt_max             =   3.4476101257637E+01
(PID.TID 0000.0001) %MON dynstat_salt_min             =   3.3629999999994E+01
(PID.TID 0000.0001) %MON dynstat_salt_mean            =   3.4188927744078E+01
(PID.TID 0000.0001) %MON dynstat_salt_sd              =   2.7007288205050E-01
(PID.TID 0000.0001) %MON dynstat_salt_del2            =   1.8236531930937E-09
(PID.TID 0000.0001) %MON trAdv_CFL_u_max              =   5.9407196045510E-04
(PID.TID 0000.0001) %MON trAdv_CFL_v_max              =   2.7201608308684E-03
(PID.TID 0000.0001) %MON trAdv_CFL_w_max              =   1.3754869212743E-03
(PID.TID 0000.0001) %MON advcfl_uvel_max              =   5.3160562430138E-04
(PID.TID 0000.0001) %MON advcfl_vvel_max              =   2.7173117128867E-03
(PID.TID 0000.0001) %MON advcfl_wvel_max              =   1.3121573327933E-03
(PID.TID 0000.0001) %MON advcfl_W_hf_max              =   1.3777651994329E-03
(PID.TID 0000.0001) %MON pe_b_mean                    =   2.2075305454164E-09
(PID.TID 0000.0001) %MON ke_max                       =   4.1667012267767E-03
(PID.TID 0000.0001) %MON ke_mean                      =   7.7709710123447E-06
(PID.TID 0000.0001) %MON ke_vol                       =   8.2635254160858E+14
(PID.TID 0000.0001) %MON vort_r_min                   =  -1.1840704601106E-05
(PID.TID 0000.0001) %MON vort_r_max                   =   8.2943344586861E-06
(PID.TID 0000.0001) %MON vort_a_mean                  =   6.9142466381008E-04
(PID.TID 0000.0001) %MON vort_a_sd                    =   1.4208281557679E-06
(PID.TID 0000.0001) %MON vort_p_mean                  =   6.9569812303954E-04
(PID.TID 0000.0001) %MON vort_p_sd                    =   9.4068913656111E-05
(PID.TID 0000.0001) %MON surfExpan_theta_mean         =   3.1753848332663E-13
(PID.TID 0000.0001) %MON surfExpan_salt_mean          =   3.1355054183961E-21
(PID.TID 0000.0001) // =======================================================
(PID.TID 0000.0001) // End MONITOR dynamic field statistics
(PID.TID 0000.0001) // =======================================================
(PID.TID 0000.0001) // =======================================================
(PID.TID 0000.0001) // Begin OBCS MONITOR field statistics
(PID.TID 0000.0001) // =======================================================
(PID.TID 0000.0001) %MON obc_S_vVel_max               =   9.1002769264576E-02
(PID.TID 0000.0001) %MON obc_S_vVel_min               =  -3.8940908382373E-04
(PID.TID 0000.0001) %MON obc_S_vVel_mean              =   6.1651508397842E-20
(PID.TID 0000.0001) %MON obc_S_vVel_sd                =   4.0749016870863E-03
(PID.TID 0000.0001) %MON obc_S_vVel_Int               =   1.0468426125954E-10
(PID.TID 0000.0001) // =======================================================
(PID.TID 0000.0001) // End OBCS MONITOR field statistics
(PID.TID 0000.0001) // =======================================================
 EXTERNAL_FIELDS_LOAD,       280 : iP,iLd,i0,i1=   14   15   14   15 ; Wght=  0.5000000000  0.5000000000
 cg2d: Sum(rhs),rhsMax =   8.52651282912120E-13  2.09524327304065E-03
 EXTERNAL_FIELDS_LOAD,       281 : iP,iLd,i0,i1=   14   15   14   15 ; Wght=  0.4500000000  0.5500000000
 cg2d: Sum(rhs),rhsMax =   1.70530256582424E-13  2.03023655990999E-03
 EXTERNAL_FIELDS_LOAD,       282 : iP,iLd,i0,i1=   14   15   14   15 ; Wght=  0.4000000000  0.6000000000
 cg2d: Sum(rhs),rhsMax =  -6.25277607468888E-13  1.95412188671357E-03
 EXTERNAL_FIELDS_LOAD,       283 : iP,iLd,i0,i1=   14   15   14   15 ; Wght=  0.3500000000  0.6500000000
 cg2d: Sum(rhs),rhsMax =   7.81597009336110E-13  1.86720354978575E-03
 EXTERNAL_FIELDS_LOAD,       284 : iP,iLd,i0,i1=   14   15   14   15 ; Wght=  0.3000000000  0.7000000000
 cg2d: Sum(rhs),rhsMax =   2.13162820728030E-13  1.76993704884060E-03
 EXTERNAL_FIELDS_LOAD,       285 : iP,iLd,i0,i1=   14   15   14   15 ; Wght=  0.2500000000  0.7500000000
 cg2d: Sum(rhs),rhsMax =   3.12638803734444E-13  1.66291765595563E-03
 EXTERNAL_FIELDS_LOAD,       286 : iP,iLd,i0,i1=   14   15   14   15 ; Wght=  0.2000000000  0.8000000000
 cg2d: Sum(rhs),rhsMax =   4.26325641456060E-14  1.54686657707495E-03
 EXTERNAL_FIELDS_LOAD,       287 : iP,iLd,i0,i1=   14   15   14   15 ; Wght=  0.1500000000  0.8500000000
 cg2d: Sum(rhs),rhsMax =  -4.40536496171262E-13  1.42261513980084E-03
 EXTERNAL_FIELDS_LOAD,       288 : iP,iLd,i0,i1=   14   15   14   15 ; Wght=  0.1000000000  0.9000000000
 cg2d: Sum(rhs),rhsMax =  -2.70006239588838E-13  1.29108745692199E-03
 EXTERNAL_FIELDS_LOAD,       289 : iP,iLd,i0,i1=   14   15   14   15 ; Wght=  0.0500000000  0.9500000000
 cg2d: Sum(rhs),rhsMax =  -1.08002495835535E-12  1.15328201833604E-03
 EXTERNAL_FIELDS_LOAD,       290 : iP,iLd,i0,i1=   14   15   15   16 ; Wght=  1.0000000000  0.0000000000
 EXTERNAL_FIELDS_LOAD, it=       290 : Reading new data, i0,i1=   15   16 (prev=   14   15 )
(PID.TID 0000.0001)  MDS_READ_FIELD: opening global file: ../input/merid_halfgauss2p5hr_272x320.bin
(PID.TID 0000.0001)  MDS_READ_FIELD: opening global file: ../input/merid_halfgauss2p5hr_272x320.bin
 cg2d: Sum(rhs),rhsMax =  -8.81072992342524E-13  1.01025265632805E-03
 EXTERNAL_FIELDS_LOAD,       291 : iP,iLd,i0,i1=   15   16   15   16 ; Wght=  0.9500000000  0.0500000000
 cg2d: Sum(rhs),rhsMax =   1.42108547152020E-14  8.63089314834707E-04
 EXTERNAL_FIELDS_LOAD,       292 : iP,iLd,i0,i1=   15   16   15   16 ; Wght=  0.9000000000  0.1000000000
 cg2d: Sum(rhs),rhsMax =  -8.52651282912120E-14  7.12899029192028E-04
 EXTERNAL_FIELDS_LOAD,       293 : iP,iLd,i0,i1=   15   16   15   16 ; Wght=  0.8500000000  0.1500000000
 cg2d: Sum(rhs),rhsMax =   4.12114786740858E-13  5.60787493132142E-04
 EXTERNAL_FIELDS_LOAD,       294 : iP,iLd,i0,i1=   15   16   15   16 ; Wght=  0.8000000000  0.2000000000
 cg2d: Sum(rhs),rhsMax =  -9.80548975348938E-13  5.02079367268819E-04
 EXTERNAL_FIELDS_LOAD,       295 : iP,iLd,i0,i1=   15   16   15   16 ; Wght=  0.7500000000  0.2500000000
 cg2d: Sum(rhs),rhsMax =   4.54747350886464E-13  4.63837677422972E-04
 EXTERNAL_FIELDS_LOAD,       296 : iP,iLd,i0,i1=   15   16   15   16 ; Wght=  0.7000000000  0.3000000000
 cg2d: Sum(rhs),rhsMax =  -1.12265752250096E-12  4.22255158944917E-04
 EXTERNAL_FIELDS_LOAD,       297 : iP,iLd,i0,i1=   15   16   15   16 ; Wght=  0.6500000000  0.3500000000
 cg2d: Sum(rhs),rhsMax =  -8.81072992342524E-13  3.77587775878369E-04
 EXTERNAL_FIELDS_LOAD,       298 : iP,iLd,i0,i1=   15   16   15   16 ; Wght=  0.6000000000  0.4000000000
 cg2d: Sum(rhs),rhsMax =  -1.80477854883065E-12  3.30381430626659E-04
 EXTERNAL_FIELDS_LOAD,       299 : iP,iLd,i0,i1=   15   16   15   16 ; Wght=  0.5500000000  0.4500000000
 cg2d: Sum(rhs),rhsMax =  -8.88178419700125E-13  3.34667217687710E-04
(PID.TID 0000.0001)      cg2d_init_res =   7.52617756179593E+00
(PID.TID 0000.0001)      cg2d_iters(min,last) =      -1      39
(PID.TID 0000.0001)      cg2d_last_res =   7.36714552945718E-08
(PID.TID 0000.0001) // =======================================================
(PID.TID 0000.0001) // Begin MONITOR dynamic field statistics
(PID.TID 0000.0001) // =======================================================
(PID.TID 0000.0001) %MON time_tsnumber                =                   300
(PID.TID 0000.0001) %MON time_secondsf                =   1.8000000000000E+04
(PID.TID 0000.0001) %MON dynstat_eta_max              =   1.4760833544287E-04
(PID.TID 0000.0001) %MON dynstat_eta_min              =  -2.8771711652101E-04
(PID.TID 0000.0001) %MON dynstat_eta_mean             =   5.4483621033636E-20
(PID.TID 0000.0001) %MON dynstat_eta_sd               =   1.3378052299336E-04
(PID.TID 0000.0001) %MON dynstat_eta_del2             =   6.1032319335247E-08
(PID.TID 0000.0001) %MON dynstat_uvel_max             =   7.5290332215554E-02
(PID.TID 0000.0001) %MON dynstat_uvel_min             =  -2.4977506745328E-02
(PID.TID 0000.0001) %MON dynstat_uvel_mean            =   8.4463985929033E-06
(PID.TID 0000.0001) %MON dynstat_uvel_sd              =   3.3178397160286E-03
(PID.TID 0000.0001) %MON dynstat_uvel_del2            =   3.2720870752928E-07
(PID.TID 0000.0001) %MON dynstat_vvel_max             =   6.0544127862013E-02
(PID.TID 0000.0001) %MON dynstat_vvel_min             =  -2.4313492139657E-02
(PID.TID 0000.0001) %MON dynstat_vvel_mean            =  -9.4044686912565E-05
(PID.TID 0000.0001) %MON dynstat_vvel_sd              =   2.1091759262092E-03
(PID.TID 0000.0001) %MON dynstat_vvel_del2            =   3.4836312795153E-07
(PID.TID 0000.0001) %MON dynstat_wvel_max             =   1.1290019423570E-05
(PID.TID 0000.0001) %MON dynstat_wvel_min             =  -3.9366178686576E-05
(PID.TID 0000.0001) %MON dynstat_wvel_mean            =  -1.1584588850083E-07
(PID.TID 0000.0001) %MON dynstat_wvel_sd              =   1.1425749287929E-06
(PID.TID 0000.0001) %MON dynstat_wvel_del2            =   1.3255047884340E-09
(PID.TID 0000.0001) %MON dynstat_theta_max            =   1.6579713723252E+01
(PID.TID 0000.0001) %MON dynstat_theta_min            =   4.1845883501711E+00
(PID.TID 0000.0001) %MON dynstat_theta_mean           =   7.5988709816004E+00
(PID.TID 0000.0001) %MON dynstat_theta_sd             =   3.5909077255671E+00
(PID.TID 0000.0001) %MON dynstat_theta_del2           =   4.5908255709387E-08
(PID.TID 0000.0001) %MON dynstat_salt_max             =   3.4476100707693E+01
(PID.TID 0000.0001) %MON dynstat_salt_min             =   3.3629996891375E+01
(PID.TID 0000.0001) %MON dynstat_salt_mean            =   3.4188927550396E+01
(PID.TID 0000.0001) %MON dynstat_salt_sd              =   2.7007297403614E-01
(PID.TID 0000.0001) %MON dynstat_salt_del2            =   1.7010685865077E-09
(PID.TID 0000.0001) %MON trAdv_CFL_u_max              =   2.1959213727340E-03
(PID.TID 0000.0001) %MON trAdv_CFL_v_max              =   1.8898565406805E-03
(PID.TID 0000.0001) %MON trAdv_CFL_w_max              =   1.0953626214603E-03
(PID.TID 0000.0001) %MON advcfl_uvel_max              =   2.2539613689045E-03
(PID.TID 0000.0001) %MON advcfl_vvel_max              =   1.8078270487314E-03
(PID.TID 0000.0001) %MON advcfl_wvel_max              =   1.0269437918237E-03
(PID.TID 0000.0001) %MON advcfl_W_hf_max              =   1.0736230550884E-03
(PID.TID 0000.0001) %MON pe_b_mean                    =   9.1703300797488E-11
(PID.TID 0000.0001) %MON ke_max                       =   5.5104598476935E-03
(PID.TID 0000.0001) %MON ke_mean                      =   7.7252112842826E-06
(PID.TID 0000.0001) %MON ke_vol                       =   8.2635254160858E+14
(PID.TID 0000.0001) %MON vort_r_min                   =  -3.2424707891998E-05
(PID.TID 0000.0001) %MON vort_r_max                   =   1.8000595481944E-05
(PID.TID 0000.0001) %MON vort_a_mean                  =   6.9142466381008E-04
(PID.TID 0000.0001) %MON vort_a_sd                    =   1.4241906536760E-06
(PID.TID 0000.0001) %MON vort_p_mean                  =   6.9569812303954E-04
(PID.TID 0000.0001) %MON vort_p_sd                    =   9.4059532004650E-05
(PID.TID 0000.0001) %MON surfExpan_theta_mean         =  -1.0440987687600E-12
(PID.TID 0000.0001) %MON surfExpan_salt_mean          =   3.1017903063704E-21
(PID.TID 0000.0001) // =======================================================
(PID.TID 0000.0001) // End MONITOR dynamic field statistics
(PID.TID 0000.0001) // =======================================================
(PID.TID 0000.0001) // =======================================================
(PID.TID 0000.0001) // Begin OBCS MONITOR field statistics
(PID.TID 0000.0001) // =======================================================
(PID.TID 0000.0001) %MON obc_S_vVel_max               =   6.0544127862013E-02
(PID.TID 0000.0001) %MON obc_S_vVel_min               =  -3.0284004823024E-04
(PID.TID 0000.0001) %MON obc_S_vVel_mean              =   1.1994070178872E-19
(PID.TID 0000.0001) %MON obc_S_vVel_sd                =   2.7113371821647E-03
(PID.TID 0000.0001) %MON obc_S_vVel_Int               =   2.0365931163724E-10
(PID.TID 0000.0001) // =======================================================
(PID.TID 0000.0001) // End OBCS MONITOR field statistics
(PID.TID 0000.0001) // =======================================================
 EXTERNAL_FIELDS_LOAD,       300 : iP,iLd,i0,i1=   15   16   15   16 ; Wght=  0.5000000000  0.5000000000
 cg2d: Sum(rhs),rhsMax =  -5.21804821573824E-13  4.72676432024012E-04
 EXTERNAL_FIELDS_LOAD,       301 : iP,iLd,i0,i1=   15   16   15   16 ; Wght=  0.4500000000  0.5500000000
 cg2d: Sum(rhs),rhsMax =  -5.52446977053478E-13  6.05594172094666E-04
 EXTERNAL_FIELDS_LOAD,       302 : iP,iLd,i0,i1=   15   16   15   16 ; Wght=  0.4000000000  0.6000000000
 cg2d: Sum(rhs),rhsMax =  -5.08038056068472E-13  7.32925760506795E-04
 EXTERNAL_FIELDS_LOAD,       303 : iP,iLd,i0,i1=   15   16   15   16 ; Wght=  0.3500000000  0.6500000000
 cg2d: Sum(rhs),rhsMax =  -4.68958205601666E-13  8.54296243174923E-04
 EXTERNAL_FIELDS_LOAD,       304 : iP,iLd,i0,i1=   15   16   15   16 ; Wght=  0.3000000000  0.7000000000
 cg2d: Sum(rhs),rhsMax =  -1.91846538655227E-13  9.69384871076266E-04
 EXTERNAL_FIELDS_LOAD,       305 : iP,iLd,i0,i1=   15   16   15   16 ; Wght=  0.2500000000  0.7500000000
 cg2d: Sum(rhs),rhsMax =  -3.83693077310454E-13  1.07798902279358E-03
 EXTERNAL_FIELDS_LOAD,       306 : iP,iLd,i0,i1=   15   16   15   16 ; Wght=  0.2000000000  0.8000000000
 cg2d: Sum(rhs),rhsMax =  -3.69482222595252E-13  1.17999752283601E-03
 EXTERNAL_FIELDS_LOAD,       307 : iP,iLd,i0,i1=   15   16   15   16 ; Wght=  0.1500000000  0.8500000000
 cg2d: Sum(rhs),rhsMax =  -7.67386154620908E-13  1.27538482017754E-03
 EXTERNAL_FIELDS_LOAD,       308 : iP,iLd,i0,i1=   15   16   15   16 ; Wght=  0.1000000000  0.9000000000
 cg2d: Sum(rhs),rhsMax =  -9.94759830064140E-14  1.36420393189807E-03
 EXTERNAL_FIELDS_LOAD,       309 : iP,iLd,i0,i1=   15   16   15   16 ; Wght=  0.0500000000  0.9500000000
 cg2d: Sum(rhs),rhsMax =   6.25277607468888E-13  1.44657837315494E-03
 EXTERNAL_FIELDS_LOAD,       310 : iP,iLd,i0,i1=   15   16   16   17 ; Wght=  1.0000000000  0.0000000000
 EXTERNAL_FIELDS_LOAD, it=       310 : Reading new data, i0,i1=   16   17 (prev=   15   16 )
(PID.TID 0000.0001)  MDS_READ_FIELD: opening global file: ../input/merid_halfgauss2p5hr_272x320.bin
(PID.TID 0000.0001)  MDS_READ_FIELD: opening global file: ../input/merid_halfgauss2p5hr_272x320.bin
 cg2d: Sum(rhs),rhsMax =  -4.68958205601666E-13  1.52269330442530E-03
 EXTERNAL_FIELDS_LOAD,       311 : iP,iLd,i0,i1=   16   17   16   17 ; Wght=  0.9500000000  0.0500000000
 cg2d: Sum(rhs),rhsMax =  -3.55271367880050E-14  1.59278613028037E-03
 EXTERNAL_FIELDS_LOAD,       312 : iP,iLd,i0,i1=   16   17   16   17 ; Wght=  0.9000000000  0.1000000000
 cg2d: Sum(rhs),rhsMax =  -3.41060513164848E-13  1.65713678253147E-03
 EXTERNAL_FIELDS_LOAD,       313 : iP,iLd,i0,i1=   16   17   16   17 ; Wght=  0.8500000000  0.1500000000
 cg2d: Sum(rhs),rhsMax =   2.70006239588838E-13  1.71605791234592E-03
 EXTERNAL_FIELDS_LOAD,       314 : iP,iLd,i0,i1=   16   17   16   17 ; Wght=  0.8000000000  0.2000000000
 cg2d: Sum(rhs),rhsMax =   1.35003119794419E-13  1.76988520525071E-03
 EXTERNAL_FIELDS_LOAD,       315 : iP,iLd,i0,i1=   16   17   16   17 ; Wght=  0.7500000000  0.2500000000
 cg2d: Sum(rhs),rhsMax =  -9.02389274415327E-13  1.81896801546729E-03
 EXTERNAL_FIELDS_LOAD,       316 : iP,iLd,i0,i1=   16   17   16   17 ; Wght=  0.7000000000  0.3000000000
 cg2d: Sum(rhs),rhsMax =  -1.00897068477934E-12  1.86366049604555E-03
 EXTERNAL_FIELDS_LOAD,       317 : iP,iLd,i0,i1=   16   17   16   17 ; Wght=  0.6500000000  0.3500000000
 cg2d: Sum(rhs),rhsMax =   2.70006239588838E-13  1.90431337687176E-03
 EXTERNAL_FIELDS_LOAD,       318 : iP,iLd,i0,i1=   16   17   16   17 ; Wght=  0.6000000000  0.4000000000
 cg2d: Sum(rhs),rhsMax =  -8.17124146124115E-13  1.94126651797777E-03
 EXTERNAL_FIELDS_LOAD,       319 : iP,iLd,i0,i1=   16   17   16   17 ; Wght=  0.5500000000  0.4500000000
 cg2d: Sum(rhs),rhsMax =  -2.62900812231237E-13  1.97484233552439E-03
(PID.TID 0000.0001)      cg2d_init_res =   7.16835279694651E-01
(PID.TID 0000.0001)      cg2d_iters(min,last) =      -1      34
(PID.TID 0000.0001)      cg2d_last_res =   7.42801640337404E-08
(PID.TID 0000.0001) // =======================================================
(PID.TID 0000.0001) // Begin MONITOR dynamic field statistics
(PID.TID 0000.0001) // =======================================================
(PID.TID 0000.0001) %MON time_tsnumber                =                   320
(PID.TID 0000.0001) %MON time_secondsf                =   1.9200000000000E+04
(PID.TID 0000.0001) %MON dynstat_eta_max              =   7.3824275745521E-04
(PID.TID 0000.0001) %MON dynstat_eta_min              =  -1.7293827688158E-03
(PID.TID 0000.0001) %MON dynstat_eta_mean             =   1.9851457960770E-19
(PID.TID 0000.0001) %MON dynstat_eta_sd               =   5.7863694520574E-04
(PID.TID 0000.0001) %MON dynstat_eta_del2             =   1.7409284981047E-07
(PID.TID 0000.0001) %MON dynstat_uvel_max             =   8.9875117545473E-02
(PID.TID 0000.0001) %MON dynstat_uvel_min             =  -2.4201081454890E-02
(PID.TID 0000.0001) %MON dynstat_uvel_mean            =  -5.7958084308160E-05
(PID.TID 0000.0001) %MON dynstat_uvel_sd              =   3.7772179077357E-03
(PID.TID 0000.0001) %MON dynstat_uvel_del2            =   3.4421461009570E-07
(PID.TID 0000.0001) %MON dynstat_vvel_max             =   1.8127972092970E-02
(PID.TID 0000.0001) %MON dynstat_vvel_min             =  -2.5509876725560E-02
(PID.TID 0000.0001) %MON dynstat_vvel_mean            =  -5.1519412803109E-05
(PID.TID 0000.0001) %MON dynstat_vvel_sd              =   1.0375235853553E-03
(PID.TID 0000.0001) %MON dynstat_vvel_del2            =   2.9623910499059E-07
(PID.TID 0000.0001) %MON dynstat_wvel_max             =   2.7269302645007E-05
(PID.TID 0000.0001) %MON dynstat_wvel_min             =  -1.2678646318601E-05
(PID.TID 0000.0001) %MON dynstat_wvel_mean            =   1.4016143060383E-08
(PID.TID 0000.0001) %MON dynstat_wvel_sd              =   7.3616438739288E-07
(PID.TID 0000.0001) %MON dynstat_wvel_del2            =   1.1500932139532E-09
(PID.TID 0000.0001) %MON dynstat_theta_max            =   1.6579731770402E+01
(PID.TID 0000.0001) %MON dynstat_theta_min            =   4.1845889473974E+00
(PID.TID 0000.0001) %MON dynstat_theta_mean           =   7.5988720485939E+00
(PID.TID 0000.0001) %MON dynstat_theta_sd             =   3.5909075659666E+00
(PID.TID 0000.0001) %MON dynstat_theta_del2           =   4.8208022899079E-08
(PID.TID 0000.0001) %MON dynstat_salt_max             =   3.4476100646821E+01
(PID.TID 0000.0001) %MON dynstat_salt_min             =   3.3629989577354E+01
(PID.TID 0000.0001) %MON dynstat_salt_mean            =   3.4188927483697E+01
(PID.TID 0000.0001) %MON dynstat_salt_sd              =   2.7007296122617E-01
(PID.TID 0000.0001) %MON dynstat_salt_del2            =   1.6185767035408E-09
(PID.TID 0000.0001) %MON trAdv_CFL_u_max              =   2.7126696780018E-03
(PID.TID 0000.0001) %MON trAdv_CFL_v_max              =   6.5790362602657E-04
(PID.TID 0000.0001) %MON trAdv_CFL_w_max              =   6.6638555874534E-04
(PID.TID 0000.0001) %MON advcfl_uvel_max              =   2.7025877591035E-03
(PID.TID 0000.0001) %MON advcfl_vvel_max              =   7.6171623546014E-04
(PID.TID 0000.0001) %MON advcfl_wvel_max              =   7.1137311247843E-04
(PID.TID 0000.0001) %MON advcfl_W_hf_max              =   7.4370825395473E-04
(PID.TID 0000.0001) %MON pe_b_mean                    =   1.7155821064410E-09
(PID.TID 0000.0001) %MON ke_max                       =   6.1413351352418E-03
(PID.TID 0000.0001) %MON ke_mean                      =   7.6747553365053E-06
(PID.TID 0000.0001) %MON ke_vol                       =   8.2635254160858E+14
(PID.TID 0000.0001) %MON vort_r_min                   =  -4.4927256476077E-05
(PID.TID 0000.0001) %MON vort_r_max                   =   1.7869578745565E-05
(PID.TID 0000.0001) %MON vort_a_mean                  =   6.9142466381008E-04
(PID.TID 0000.0001) %MON vort_a_sd                    =   1.4272530630301E-06
(PID.TID 0000.0001) %MON vort_p_mean                  =   6.9569812303954E-04
(PID.TID 0000.0001) %MON vort_p_sd                    =   9.4054572278543E-05
(PID.TID 0000.0001) %MON surfExpan_theta_mean         =  -8.1580674113818E-13
(PID.TID 0000.0001) %MON surfExpan_salt_mean          =   4.0120983310660E-21
(PID.TID 0000.0001) // =======================================================
(PID.TID 0000.0001) // End MONITOR dynamic field statistics
(PID.TID 0000.0001) // =======================================================
(PID.TID 0000.0001) // =======================================================
(PID.TID 0000.0001) // Begin OBCS MONITOR field statistics
(PID.TID 0000.0001) // =======================================================
(PID.TID 0000.0001) %MON obc_S_vVel_max               =   1.1196690726981E-04
(PID.TID 0000.0001) %MON obc_S_vVel_min               =  -8.9631541740900E-03
(PID.TID 0000.0001) %MON obc_S_vVel_mean              =   1.2323606341658E-21
(PID.TID 0000.0001) %MON obc_S_vVel_sd                =   4.0163979567872E-04
(PID.TID 0000.0001) %MON obc_S_vVel_Int               =   2.0925483568135E-12
(PID.TID 0000.0001) // =======================================================
(PID.TID 0000.0001) // End OBCS MONITOR field statistics
(PID.TID 0000.0001) // =======================================================
 EXTERNAL_FIELDS_LOAD,       320 : iP,iLd,i0,i1=   16   17   16   17 ; Wght=  0.5000000000  0.5000000000
 cg2d: Sum(rhs),rhsMax =   9.94759830064140E-14  2.00534017020334E-03
 EXTERNAL_FIELDS_LOAD,       321 : iP,iLd,i0,i1=   16   17   16   17 ; Wght=  0.4500000000  0.5500000000
 cg2d: Sum(rhs),rhsMax =  -4.26325641456060E-13  2.03303163810185E-03
 EXTERNAL_FIELDS_LOAD,       322 : iP,iLd,i0,i1=   16   17   16   17 ; Wght=  0.4000000000  0.6000000000
 cg2d: Sum(rhs),rhsMax =  -6.67910171614494E-13  2.05815697557369E-03
 EXTERNAL_FIELDS_LOAD,       323 : iP,iLd,i0,i1=   16   17   16   17 ; Wght=  0.3500000000  0.6500000000
 cg2d: Sum(rhs),rhsMax =  -7.10542735760100E-15  2.08092236238182E-03
 EXTERNAL_FIELDS_LOAD,       324 : iP,iLd,i0,i1=   16   17   16   17 ; Wght=  0.3000000000  0.7000000000
 cg2d: Sum(rhs),rhsMax =   5.68434188608080E-13  2.10149818309861E-03
 EXTERNAL_FIELDS_LOAD,       325 : iP,iLd,i0,i1=   16   17   16   17 ; Wght=  0.2500000000  0.7500000000
 cg2d: Sum(rhs),rhsMax =  -2.06057393370429E-13  2.12001816280527E-03
 EXTERNAL_FIELDS_LOAD,       326 : iP,iLd,i0,i1=   16   17   16   17 ; Wght=  0.2000000000  0.8000000000
 cg2d: Sum(rhs),rhsMax =  -3.48165940522449E-13  2.13657929661080E-03
 EXTERNAL_FIELDS_LOAD,       327 : iP,iLd,i0,i1=   16   17   16   17 ; Wght=  0.1500000000  0.8500000000
 cg2d: Sum(rhs),rhsMax =  -3.69482222595252E-13  2.15124247608853E-03
 EXTERNAL_FIELDS_LOAD,       328 : iP,iLd,i0,i1=   16   17   16   17 ; Wght=  0.1000000000  0.9000000000
 cg2d: Sum(rhs),rhsMax =  -1.56319401867222E-13  2.16403370580449E-03
 EXTERNAL_FIELDS_LOAD,       329 : iP,iLd,i0,i1=   16   17   16   17 ; Wght=  0.0500000000  0.9500000000
 cg2d: Sum(rhs),rhsMax =  -4.40536496171262E-13  2.17494579618615E-03
 EXTERNAL_FIELDS_LOAD,       330 : iP,iLd,i0,i1=   16   17   17   18 ; Wght=  1.0000000000  0.0000000000
 EXTERNAL_FIELDS_LOAD, it=       330 : Reading new data, i0,i1=   17   18 (prev=   16   17 )
(PID.TID 0000.0001)  MDS_READ_FIELD: opening global file: ../input/merid_halfgauss2p5hr_272x320.bin
(PID.TID 0000.0001)  MDS_READ_FIELD: opening global file: ../input/merid_halfgauss2p5hr_272x320.bin
 cg2d: Sum(rhs),rhsMax =  -9.94759830064140E-14  2.18394041927690E-03
 EXTERNAL_FIELDS_LOAD,       331 : iP,iLd,i0,i1=   17   18   17   18 ; Wght=  0.9500000000  0.0500000000
 cg2d: Sum(rhs),rhsMax =  -3.69482222595252E-13  2.19095041460861E-03
 EXTERNAL_FIELDS_LOAD,       332 : iP,iLd,i0,i1=   17   18   17   18 ; Wght=  0.9000000000  0.1000000000
 cg2d: Sum(rhs),rhsMax =  -3.12638803734444E-13  2.19589831034338E-03
 EXTERNAL_FIELDS_LOAD,       333 : iP,iLd,i0,i1=   17   18   17   18 ; Wght=  0.8500000000  0.1500000000
 cg2d: Sum(rhs),rhsMax =   4.26325641456060E-14  2.19870469577835E-03
 EXTERNAL_FIELDS_LOAD,       334 : iP,iLd,i0,i1=   17   18   17   18 ; Wght=  0.8000000000  0.2000000000
 cg2d: Sum(rhs),rhsMax =  -1.84741111297626E-13  2.19917661312655E-03
 EXTERNAL_FIELDS_LOAD,       335 : iP,iLd,i0,i1=   17   18   17   18 ; Wght=  0.7500000000  0.2500000000
 cg2d: Sum(rhs),rhsMax =  -5.68434188608080E-14  2.19715497806448E-03
 EXTERNAL_FIELDS_LOAD,       336 : iP,iLd,i0,i1=   17   18   17   18 ; Wght=  0.7000000000  0.3000000000
 cg2d: Sum(rhs),rhsMax =   2.13162820728030E-13  2.19246400526435E-03
 EXTERNAL_FIELDS_LOAD,       337 : iP,iLd,i0,i1=   17   18   17   18 ; Wght=  0.6500000000  0.3500000000
 cg2d: Sum(rhs),rhsMax =  -3.12638803734444E-13  2.18491336214527E-03
 EXTERNAL_FIELDS_LOAD,       338 : iP,iLd,i0,i1=   17   18   17   18 ; Wght=  0.6000000000  0.4000000000
 cg2d: Sum(rhs),rhsMax =  -7.67386154620908E-13  2.17430017342105E-03
 EXTERNAL_FIELDS_LOAD,       339 : iP,iLd,i0,i1=   17   18   17   18 ; Wght=  0.5500000000  0.4500000000
 cg2d: Sum(rhs),rhsMax =  -3.26849658449646E-13  2.16041089748834E-03
(PID.TID 0000.0001)      cg2d_init_res =   6.16086033695422E-01
(PID.TID 0000.0001)      cg2d_iters(min,last) =      -1      32
(PID.TID 0000.0001)      cg2d_last_res =   8.66166136614737E-08
(PID.TID 0000.0001) // =======================================================
(PID.TID 0000.0001) // Begin MONITOR dynamic field statistics
(PID.TID 0000.0001) // =======================================================
(PID.TID 0000.0001) %MON time_tsnumber                =                   340
(PID.TID 0000.0001) %MON time_secondsf                =   2.0400000000000E+04
(PID.TID 0000.0001) %MON dynstat_eta_max              =   8.4885961952958E-04
(PID.TID 0000.0001) %MON dynstat_eta_min              =  -1.8940015239591E-03
(PID.TID 0000.0001) %MON dynstat_eta_mean             =   0.0000000000000E+00
(PID.TID 0000.0001) %MON dynstat_eta_sd               =   5.8080896604751E-04
(PID.TID 0000.0001) %MON dynstat_eta_del2             =   1.8633329970105E-07
(PID.TID 0000.0001) %MON dynstat_uvel_max             =   5.5345907169643E-02
(PID.TID 0000.0001) %MON dynstat_uvel_min             =  -1.8928384535335E-02
(PID.TID 0000.0001) %MON dynstat_uvel_mean            =  -6.1850783337403E-05
(PID.TID 0000.0001) %MON dynstat_uvel_sd              =   1.7890576671010E-03
(PID.TID 0000.0001) %MON dynstat_uvel_del2            =   3.2194155104002E-07
(PID.TID 0000.0001) %MON dynstat_vvel_max             =   2.1193136463433E-02
(PID.TID 0000.0001) %MON dynstat_vvel_min             =  -7.9496635381896E-02
(PID.TID 0000.0001) %MON dynstat_vvel_mean            =   4.3988597923866E-05
(PID.TID 0000.0001) %MON dynstat_vvel_sd              =   3.4736870675995E-03
(PID.TID 0000.0001) %MON dynstat_vvel_del2            =   2.8190380538713E-07
(PID.TID 0000.0001) %MON dynstat_wvel_max             =   3.3166090018689E-05
(PID.TID 0000.0001) %MON dynstat_wvel_min             =  -6.5301842577677E-06
(PID.TID 0000.0001) %MON dynstat_wvel_mean            =   1.3738163120626E-07
(PID.TID 0000.0001) %MON dynstat_wvel_sd              =   1.2936489281889E-06
(PID.TID 0000.0001) %MON dynstat_wvel_del2            =   1.0870658907705E-09
(PID.TID 0000.0001) %MON dynstat_theta_max            =   1.6579655259133E+01
(PID.TID 0000.0001) %MON dynstat_theta_min            =   4.1845875871205E+00
(PID.TID 0000.0001) %MON dynstat_theta_mean           =   7.5988703104254E+00
(PID.TID 0000.0001) %MON dynstat_theta_sd             =   3.5909043799435E+00
(PID.TID 0000.0001) %MON dynstat_theta_del2           =   4.8272407230927E-08
(PID.TID 0000.0001) %MON dynstat_salt_max             =   3.4476100785467E+01
(PID.TID 0000.0001) %MON dynstat_salt_min             =   3.3629999993283E+01
(PID.TID 0000.0001) %MON dynstat_salt_mean            =   3.4188927588629E+01
(PID.TID 0000.0001) %MON dynstat_salt_sd              =   2.7007281009589E-01
(PID.TID 0000.0001) %MON dynstat_salt_del2            =   1.5169055111142E-09
(PID.TID 0000.0001) %MON trAdv_CFL_u_max              =   1.7794270807582E-03
(PID.TID 0000.0001) %MON trAdv_CFL_v_max              =   2.3229836597682E-03
(PID.TID 0000.0001) %MON trAdv_CFL_w_max              =   8.7429762840453E-04
(PID.TID 0000.0001) %MON advcfl_uvel_max              =   1.6887993266604E-03
(PID.TID 0000.0001) %MON advcfl_vvel_max              =   2.3737424718392E-03
(PID.TID 0000.0001) %MON advcfl_wvel_max              =   9.2062183885958E-04
(PID.TID 0000.0001) %MON advcfl_W_hf_max              =   9.6665293080256E-04
(PID.TID 0000.0001) %MON pe_b_mean                    =   1.7284857890101E-09
(PID.TID 0000.0001) %MON ke_max                       =   4.7757291530362E-03
(PID.TID 0000.0001) %MON ke_mean                      =   7.6255618740386E-06
(PID.TID 0000.0001) %MON ke_vol                       =   8.2635254160858E+14
(PID.TID 0000.0001) %MON vort_r_min                   =  -2.8074710076322E-05
(PID.TID 0000.0001) %MON vort_r_max                   =   1.2168540319181E-05
(PID.TID 0000.0001) %MON vort_a_mean                  =   6.9142466381008E-04
(PID.TID 0000.0001) %MON vort_a_sd                    =   1.4225298530735E-06
(PID.TID 0000.0001) %MON vort_p_mean                  =   6.9569812303954E-04
(PID.TID 0000.0001) %MON vort_p_sd                    =   9.4057081956309E-05
(PID.TID 0000.0001) %MON surfExpan_theta_mean         =   4.0177470448854E-13
(PID.TID 0000.0001) %MON surfExpan_salt_mean          =   4.7201156836071E-21
(PID.TID 0000.0001) // =======================================================
(PID.TID 0000.0001) // End MONITOR dynamic field statistics
(PID.TID 0000.0001) // =======================================================
(PID.TID 0000.0001) // =======================================================
(PID.TID 0000.0001) // Begin OBCS MONITOR field statistics
(PID.TID 0000.0001) // =======================================================
(PID.TID 0000.0001) %MON obc_S_vVel_max               =   2.8337103725037E-04
(PID.TID 0000.0001) %MON obc_S_vVel_min               =  -7.2674157762797E-02
(PID.TID 0000.0001) %MON obc_S_vVel_mean              =   8.0946635338889E-20
(PID.TID 0000.0001) %MON obc_S_vVel_sd                =   3.2544664133031E-03
(PID.TID 0000.0001) %MON obc_S_vVel_Int               =   1.3744738680543E-10
(PID.TID 0000.0001) // =======================================================
(PID.TID 0000.0001) // End OBCS MONITOR field statistics
(PID.TID 0000.0001) // =======================================================
 EXTERNAL_FIELDS_LOAD,       340 : iP,iLd,i0,i1=   17   18   17   18 ; Wght=  0.5000000000  0.5000000000
 cg2d: Sum(rhs),rhsMax =  -1.27897692436818E-13  2.14302311518417E-03
 EXTERNAL_FIELDS_LOAD,       341 : iP,iLd,i0,i1=   17   18   17   18 ; Wght=  0.4500000000  0.5500000000
 cg2d: Sum(rhs),rhsMax =  -5.11590769747272E-13  2.12190728719841E-03
 EXTERNAL_FIELDS_LOAD,       342 : iP,iLd,i0,i1=   17   18   17   18 ; Wght=  0.4000000000  0.6000000000
 cg2d: Sum(rhs),rhsMax =   4.26325641456060E-14  2.09682855070609E-03
 EXTERNAL_FIELDS_LOAD,       343 : iP,iLd,i0,i1=   17   18   17   18 ; Wght=  0.3500000000  0.6500000000
 cg2d: Sum(rhs),rhsMax =  -2.84217094304040E-14  2.06754863612248E-03
 EXTERNAL_FIELDS_LOAD,       344 : iP,iLd,i0,i1=   17   18   17   18 ; Wght=  0.3000000000  0.7000000000
 cg2d: Sum(rhs),rhsMax =  -7.10542735760100E-14  2.03382798806088E-03
 EXTERNAL_FIELDS_LOAD,       345 : iP,iLd,i0,i1=   17   18   17   18 ; Wght=  0.2500000000  0.7500000000
 cg2d: Sum(rhs),rhsMax =  -7.95807864051312E-13  1.99542817636679E-03
 EXTERNAL_FIELDS_LOAD,       346 : iP,iLd,i0,i1=   17   18   17   18 ; Wght=  0.2000000000  0.8000000000
 cg2d: Sum(rhs),rhsMax =   2.13162820728030E-14  1.95211467557549E-03
 EXTERNAL_FIELDS_LOAD,       347 : iP,iLd,i0,i1=   17   18   17   18 ; Wght=  0.1500000000  0.8500000000
 cg2d: Sum(rhs),rhsMax =  -6.39488462184090E-13  1.90366008262043E-03
 EXTERNAL_FIELDS_LOAD,       348 : iP,iLd,i0,i1=   17   18   17   18 ; Wght=  0.1000000000  0.9000000000
 cg2d: Sum(rhs),rhsMax =  -1.13686837721616E-13  1.84984782555148E-03
 EXTERNAL_FIELDS_LOAD,       349 : iP,iLd,i0,i1=   17   18   17   18 ; Wght=  0.0500000000  0.9500000000
 cg2d: Sum(rhs),rhsMax =  -4.12114786740858E-13  1.79047639534926E-03
 EXTERNAL_FIELDS_LOAD,       350 : iP,iLd,i0,i1=   17   18   18   19 ; Wght=  1.0000000000  0.0000000000
 EXTERNAL_FIELDS_LOAD, it=       350 : Reading new data, i0,i1=   18   19 (prev=   17   18 )
(PID.TID 0000.0001)  MDS_READ_FIELD: opening global file: ../input/merid_halfgauss2p5hr_272x320.bin
(PID.TID 0000.0001)  MDS_READ_FIELD: opening global file: ../input/merid_halfgauss2p5hr_272x320.bin
 cg2d: Sum(rhs),rhsMax =  -1.56319401867222E-13  1.72536411004639E-03
 EXTERNAL_FIELDS_LOAD,       351 : iP,iLd,i0,i1=   18   19   18   19 ; Wght=  0.9500000000  0.0500000000
 cg2d: Sum(rhs),rhsMax =   1.77635683940025E-13  1.65435439062617E-03
 EXTERNAL_FIELDS_LOAD,       352 : iP,iLd,i0,i1=   18   19   18   19 ; Wght=  0.9000000000  0.1000000000
 cg2d: Sum(rhs),rhsMax =  -3.90798504668055E-13  1.57732149960151E-03
 EXTERNAL_FIELDS_LOAD,       353 : iP,iLd,i0,i1=   18   19   18   19 ; Wght=  0.8500000000  0.1500000000
 cg2d: Sum(rhs),rhsMax =  -3.69482222595252E-13  1.49417666230631E-03
 EXTERNAL_FIELDS_LOAD,       354 : iP,iLd,i0,i1=   18   19   18   19 ; Wght=  0.8000000000  0.2000000000
 cg2d: Sum(rhs),rhsMax =  -4.26325641456060E-14  1.40487445900673E-03
 EXTERNAL_FIELDS_LOAD,       355 : iP,iLd,i0,i1=   18   19   18   19 ; Wght=  0.7500000000  0.2500000000
 cg2d: Sum(rhs),rhsMax =  -3.12638803734444E-13  1.30941934826701E-03
 EXTERNAL_FIELDS_LOAD,       356 : iP,iLd,i0,i1=   18   19   18   19 ; Wght=  0.7000000000  0.3000000000
 cg2d: Sum(rhs),rhsMax =  -2.48689957516035E-13  1.20787215445984E-03
 EXTERNAL_FIELDS_LOAD,       357 : iP,iLd,i0,i1=   18   19   18   19 ; Wght=  0.6500000000  0.3500000000
 cg2d: Sum(rhs),rhsMax =  -1.63424829224823E-13  1.10035633028576E-03
 EXTERNAL_FIELDS_LOAD,       358 : iP,iLd,i0,i1=   18   19   18   19 ; Wght=  0.6000000000  0.4000000000
 cg2d: Sum(rhs),rhsMax =  -2.52242671194836E-13  9.87063787489423E-04
 EXTERNAL_FIELDS_LOAD,       359 : iP,iLd,i0,i1=   18   19   18   19 ; Wght=  0.5500000000  0.4500000000
 cg2d: Sum(rhs),rhsMax =  -2.91322521661641E-13  8.68260078656972E-04
(PID.TID 0000.0001)      cg2d_init_res =   2.78890128567204E+00
(PID.TID 0000.0001)      cg2d_iters(min,last) =      -1      37
(PID.TID 0000.0001)      cg2d_last_res =   9.92291021327382E-08
(PID.TID 0000.0001) // =======================================================
(PID.TID 0000.0001) // Begin MONITOR dynamic field statistics
(PID.TID 0000.0001) // =======================================================
(PID.TID 0000.0001) %MON time_tsnumber                =                   360
(PID.TID 0000.0001) %MON time_secondsf                =   2.1600000000000E+04
(PID.TID 0000.0001) %MON dynstat_eta_max              =   1.2749200924538E-04
(PID.TID 0000.0001) %MON dynstat_eta_min              =  -7.5357947504219E-04
(PID.TID 0000.0001) %MON dynstat_eta_mean             =   2.7511531413024E-20
(PID.TID 0000.0001) %MON dynstat_eta_sd               =   8.3815514328225E-05
(PID.TID 0000.0001) %MON dynstat_eta_del2             =   1.2029119319497E-07
(PID.TID 0000.0001) %MON dynstat_uvel_max             =   1.7034227523732E-02
(PID.TID 0000.0001) %MON dynstat_uvel_min             =  -3.3852661120364E-02
(PID.TID 0000.0001) %MON dynstat_uvel_mean            =   2.2952055948305E-06
(PID.TID 0000.0001) %MON dynstat_uvel_sd              =   1.3612681607635E-03
(PID.TID 0000.0001) %MON dynstat_uvel_del2            =   2.7147318309998E-07
(PID.TID 0000.0001) %MON dynstat_vvel_max             =   2.3915986575944E-02
(PID.TID 0000.0001) %MON dynstat_vvel_min             =  -8.8681376735845E-02
(PID.TID 0000.0001) %MON dynstat_vvel_mean            =   9.3938485990860E-05
(PID.TID 0000.0001) %MON dynstat_vvel_sd              =   3.6506221852819E-03
(PID.TID 0000.0001) %MON dynstat_vvel_del2            =   2.9011818379153E-07
(PID.TID 0000.0001) %MON dynstat_wvel_max             =   3.8410032350395E-05
(PID.TID 0000.0001) %MON dynstat_wvel_min             =  -7.4398862297877E-06
(PID.TID 0000.0001) %MON dynstat_wvel_mean            =   1.7122418348892E-07
(PID.TID 0000.0001) %MON dynstat_wvel_sd              =   1.5366077503223E-06
(PID.TID 0000.0001) %MON dynstat_wvel_del2            =   1.1499139132307E-09
(PID.TID 0000.0001) %MON dynstat_theta_max            =   1.6579521600185E+01
(PID.TID 0000.0001) %MON dynstat_theta_min            =   4.1845852472078E+00
(PID.TID 0000.0001) %MON dynstat_theta_mean           =   7.5988668690711E+00
(PID.TID 0000.0001) %MON dynstat_theta_sd             =   3.5908994029348E+00
(PID.TID 0000.0001) %MON dynstat_theta_del2           =   4.4348769887208E-08
(PID.TID 0000.0001) %MON dynstat_salt_max             =   3.4476101023961E+01
(PID.TID 0000.0001) %MON dynstat_salt_min             =   3.3629999999997E+01
(PID.TID 0000.0001) %MON dynstat_salt_mean            =   3.4188927799044E+01
(PID.TID 0000.0001) %MON dynstat_salt_sd              =   2.7007257690883E-01
(PID.TID 0000.0001) %MON dynstat_salt_del2            =   1.5065343817324E-09
(PID.TID 0000.0001) %MON trAdv_CFL_u_max              =   9.1480050695793E-04
(PID.TID 0000.0001) %MON trAdv_CFL_v_max              =   2.6674552466728E-03
(PID.TID 0000.0001) %MON trAdv_CFL_w_max              =   1.0289561119457E-03
(PID.TID 0000.0001) %MON advcfl_uvel_max              =   1.0134514227752E-03
(PID.TID 0000.0001) %MON advcfl_vvel_max              =   2.6479957221811E-03
(PID.TID 0000.0001) %MON advcfl_wvel_max              =   1.0773501122479E-03
(PID.TID 0000.0001) %MON advcfl_W_hf_max              =   1.1312176178603E-03
(PID.TID 0000.0001) %MON pe_b_mean                    =   3.5995484038804E-11
(PID.TID 0000.0001) %MON ke_max                       =   4.2452484984019E-03
(PID.TID 0000.0001) %MON ke_mean                      =   7.5781747651226E-06
(PID.TID 0000.0001) %MON ke_vol                       =   8.2635254160858E+14
(PID.TID 0000.0001) %MON vort_r_min                   =  -1.1799901871631E-05
(PID.TID 0000.0001) %MON vort_r_max                   =   7.1744387551419E-06
(PID.TID 0000.0001) %MON vort_a_mean                  =   6.9142466381008E-04
(PID.TID 0000.0001) %MON vort_a_sd                    =   1.4201320626146E-06
(PID.TID 0000.0001) %MON vort_p_mean                  =   6.9569812303954E-04
(PID.TID 0000.0001) %MON vort_p_sd                    =   9.4063589424143E-05
(PID.TID 0000.0001) %MON surfExpan_theta_mean         =  -5.9740687812498E-13
(PID.TID 0000.0001) %MON surfExpan_salt_mean          =  -2.6972089620612E-21
(PID.TID 0000.0001) // =======================================================
(PID.TID 0000.0001) // End MONITOR dynamic field statistics
(PID.TID 0000.0001) // =======================================================
(PID.TID 0000.0001) // =======================================================
(PID.TID 0000.0001) // Begin OBCS MONITOR field statistics
(PID.TID 0000.0001) // =======================================================
(PID.TID 0000.0001) %MON obc_S_vVel_max               =   3.9081171480576E-04
(PID.TID 0000.0001) %MON obc_S_vVel_min               =  -8.8681376735845E-02
(PID.TID 0000.0001) %MON obc_S_vVel_mean              =  -1.2058303576951E-19
(PID.TID 0000.0001) %MON obc_S_vVel_sd                =   3.9721715762434E-03
(PID.TID 0000.0001) %MON obc_S_vVel_Int               =  -2.0474999473663E-10
(PID.TID 0000.0001) // =======================================================
(PID.TID 0000.0001) // End OBCS MONITOR field statistics
(PID.TID 0000.0001) // =======================================================
 EXTERNAL_FIELDS_LOAD,       360 : iP,iLd,i0,i1=   18   19   18   19 ; Wght=  0.5000000000  0.5000000000
 cg2d: Sum(rhs),rhsMax =  -2.59348098552437E-13  7.44293041754376E-04
 EXTERNAL_FIELDS_LOAD,       361 : iP,iLd,i0,i1=   18   19   18   19 ; Wght=  0.4500000000  0.5500000000
 cg2d: Sum(rhs),rhsMax =  -7.31859017832903E-13  6.15627144519170E-04
 EXTERNAL_FIELDS_LOAD,       362 : iP,iLd,i0,i1=   18   19   18   19 ; Wght=  0.4000000000  0.6000000000
 cg2d: Sum(rhs),rhsMax =   2.48689957516035E-13  4.82728769752388E-04
 EXTERNAL_FIELDS_LOAD,       363 : iP,iLd,i0,i1=   18   19   18   19 ; Wght=  0.3500000000  0.6500000000
 cg2d: Sum(rhs),rhsMax =  -1.42108547152020E-12  3.50809471358792E-04
 EXTERNAL_FIELDS_LOAD,       364 : iP,iLd,i0,i1=   18   19   18   19 ; Wght=  0.3000000000  0.7000000000
 cg2d: Sum(rhs),rhsMax =   2.98427949019242E-13  4.05396445482593E-04
 EXTERNAL_FIELDS_LOAD,       365 : iP,iLd,i0,i1=   18   19   18   19 ; Wght=  0.2500000000  0.7500000000
 cg2d: Sum(rhs),rhsMax =   1.27897692436818E-12  4.58162003309961E-04
 EXTERNAL_FIELDS_LOAD,       366 : iP,iLd,i0,i1=   18   19   18   19 ; Wght=  0.2000000000  0.8000000000
 cg2d: Sum(rhs),rhsMax =   1.27897692436818E-12  5.11110700616116E-04
 EXTERNAL_FIELDS_LOAD,       367 : iP,iLd,i0,i1=   18   19   18   19 ; Wght=  0.1500000000  0.8500000000
 cg2d: Sum(rhs),rhsMax =  -1.25055521493778E-12  5.80258407994637E-04
 EXTERNAL_FIELDS_LOAD,       368 : iP,iLd,i0,i1=   18   19   18   19 ; Wght=  0.1000000000  0.9000000000
 cg2d: Sum(rhs),rhsMax =  -5.11590769747272E-13  6.77302814441304E-04
 EXTERNAL_FIELDS_LOAD,       369 : iP,iLd,i0,i1=   18   19   18   19 ; Wght=  0.0500000000  0.9500000000
 cg2d: Sum(rhs),rhsMax =   7.10542735760100E-14  7.71927010746878E-04
 EXTERNAL_FIELDS_LOAD,       370 : iP,iLd,i0,i1=   18   19   19   20 ; Wght=  1.0000000000  0.0000000000
 EXTERNAL_FIELDS_LOAD, it=       370 : Reading new data, i0,i1=   19   20 (prev=   18   19 )
(PID.TID 0000.0001)  MDS_READ_FIELD: opening global file: ../input/merid_halfgauss2p5hr_272x320.bin
(PID.TID 0000.0001)  MDS_READ_FIELD: opening global file: ../input/merid_halfgauss2p5hr_272x320.bin
 cg2d: Sum(rhs),rhsMax =  -1.42108547152020E-14  8.63405559989863E-04
 EXTERNAL_FIELDS_LOAD,       371 : iP,iLd,i0,i1=   19   20   19   20 ; Wght=  0.9500000000  0.0500000000
 cg2d: Sum(rhs),rhsMax =   1.42108547152020E-13  9.51028429917765E-04
 EXTERNAL_FIELDS_LOAD,       372 : iP,iLd,i0,i1=   19   20   19   20 ; Wght=  0.9000000000  0.1000000000
 cg2d: Sum(rhs),rhsMax =   6.11066752753686E-13  1.03411067222215E-03
 EXTERNAL_FIELDS_LOAD,       373 : iP,iLd,i0,i1=   19   20   19   20 ; Wght=  0.8500000000  0.1500000000
 cg2d: Sum(rhs),rhsMax =  -5.11590769747272E-13  1.11200192448185E-03
 EXTERNAL_FIELDS_LOAD,       374 : iP,iLd,i0,i1=   19   20   19   20 ; Wght=  0.8000000000  0.2000000000
 cg2d: Sum(rhs),rhsMax =   4.54747350886464E-13  1.18409556815413E-03
 EXTERNAL_FIELDS_LOAD,       375 : iP,iLd,i0,i1=   19   20   19   20 ; Wght=  0.7500000000  0.2500000000
 cg2d: Sum(rhs),rhsMax =  -5.11590769747272E-13  1.26784449174317E-03
 EXTERNAL_FIELDS_LOAD,       376 : iP,iLd,i0,i1=   19   20   19   20 ; Wght=  0.7000000000  0.3000000000
 cg2d: Sum(rhs),rhsMax =  -4.26325641456060E-14  1.37004329849505E-03
 EXTERNAL_FIELDS_LOAD,       377 : iP,iLd,i0,i1=   19   20   19   20 ; Wght=  0.6500000000  0.3500000000
 cg2d: Sum(rhs),rhsMax =   6.39488462184090E-13  1.46271383449806E-03
 EXTERNAL_FIELDS_LOAD,       378 : iP,iLd,i0,i1=   19   20   19   20 ; Wght=  0.6000000000  0.4000000000
 cg2d: Sum(rhs),rhsMax =   2.27373675443232E-13  1.54508858286435E-03
 EXTERNAL_FIELDS_LOAD,       379 : iP,iLd,i0,i1=   19   20   19   20 ; Wght=  0.5500000000  0.4500000000
 cg2d: Sum(rhs),rhsMax =   6.67910171614494E-13  1.61650738316882E-03
(PID.TID 0000.0001)      cg2d_init_res =   5.89291276226809E-01
(PID.TID 0000.0001)      cg2d_iters(min,last) =      -1      34
(PID.TID 0000.0001)      cg2d_last_res =   6.37927573020606E-08
(PID.TID 0000.0001) // =======================================================
(PID.TID 0000.0001) // Begin MONITOR dynamic field statistics
(PID.TID 0000.0001) // =======================================================
(PID.TID 0000.0001) %MON time_tsnumber                =                   380
(PID.TID 0000.0001) %MON time_secondsf                =   2.2800000000000E+04
(PID.TID 0000.0001) %MON dynstat_eta_max              =   1.4352889947390E-03
(PID.TID 0000.0001) %MON dynstat_eta_min              =  -8.3233109632286E-04
(PID.TID 0000.0001) %MON dynstat_eta_mean             =  -5.6101946410873E-20
(PID.TID 0000.0001) %MON dynstat_eta_sd               =   6.0043891221619E-04
(PID.TID 0000.0001) %MON dynstat_eta_del2             =   2.1567932848642E-08
(PID.TID 0000.0001) %MON dynstat_uvel_max             =   2.0048430783838E-02
(PID.TID 0000.0001) %MON dynstat_uvel_min             =  -8.3068571416686E-02
(PID.TID 0000.0001) %MON dynstat_uvel_mean            =   6.2722911358764E-05
(PID.TID 0000.0001) %MON dynstat_uvel_sd              =   3.5930386743751E-03
(PID.TID 0000.0001) %MON dynstat_uvel_del2            =   2.6177406243541E-07
(PID.TID 0000.0001) %MON dynstat_vvel_max             =   1.7238770750622E-02
(PID.TID 0000.0001) %MON dynstat_vvel_min             =  -4.8966333603600E-02
(PID.TID 0000.0001) %MON dynstat_vvel_mean            =   3.5761605076899E-05
(PID.TID 0000.0001) %MON dynstat_vvel_sd              =   1.4661074294038E-03
(PID.TID 0000.0001) %MON dynstat_vvel_del2            =   2.7003511707193E-07
(PID.TID 0000.0001) %MON dynstat_wvel_max             =   2.7514712532228E-05
(PID.TID 0000.0001) %MON dynstat_wvel_min             =  -1.9529089287834E-05
(PID.TID 0000.0001) %MON dynstat_wvel_mean            =   9.2653301880104E-08
(PID.TID 0000.0001) %MON dynstat_wvel_sd              =   8.6698763330894E-07
(PID.TID 0000.0001) %MON dynstat_wvel_del2            =   1.1322941388024E-09
(PID.TID 0000.0001) %MON dynstat_theta_max            =   1.6579484587887E+01
(PID.TID 0000.0001) %MON dynstat_theta_min            =   4.1845814734495E+00
(PID.TID 0000.0001) %MON dynstat_theta_mean           =   7.5988639712357E+00
(PID.TID 0000.0001) %MON dynstat_theta_sd             =   3.5908950519200E+00
(PID.TID 0000.0001) %MON dynstat_theta_del2           =   4.0643243303167E-08
(PID.TID 0000.0001) %MON dynstat_salt_max             =   3.4476101408604E+01
(PID.TID 0000.0001) %MON dynstat_salt_min             =   3.3629999999997E+01
(PID.TID 0000.0001) %MON dynstat_salt_mean            =   3.4188927977289E+01
(PID.TID 0000.0001) %MON dynstat_salt_sd              =   2.7007237208540E-01
(PID.TID 0000.0001) %MON dynstat_salt_del2            =   1.4599170739279E-09
(PID.TID 0000.0001) %MON trAdv_CFL_u_max              =   2.4508968137910E-03
(PID.TID 0000.0001) %MON trAdv_CFL_v_max              =   1.5411227606005E-03
(PID.TID 0000.0001) %MON trAdv_CFL_w_max              =   7.1006799225503E-04
(PID.TID 0000.0001) %MON advcfl_uvel_max              =   2.4868347820113E-03
(PID.TID 0000.0001) %MON advcfl_vvel_max              =   1.4621180532577E-03
(PID.TID 0000.0001) %MON advcfl_wvel_max              =   7.1777510953638E-04
(PID.TID 0000.0001) %MON advcfl_W_hf_max              =   7.5040125087895E-04
(PID.TID 0000.0001) %MON pe_b_mean                    =   1.8472975243968E-09
(PID.TID 0000.0001) %MON ke_max                       =   5.7059218907332E-03
(PID.TID 0000.0001) %MON ke_mean                      =   7.5277540420270E-06
(PID.TID 0000.0001) %MON ke_vol                       =   8.2635254160858E+14
(PID.TID 0000.0001) %MON vort_r_min                   =  -1.4760104180928E-05
(PID.TID 0000.0001) %MON vort_r_max                   =   3.7480893431810E-05
(PID.TID 0000.0001) %MON vort_a_mean                  =   6.9142466381008E-04
(PID.TID 0000.0001) %MON vort_a_sd                    =   1.4254482006233E-06
(PID.TID 0000.0001) %MON vort_p_mean                  =   6.9569812303954E-04
(PID.TID 0000.0001) %MON vort_p_sd                    =   9.4071634524115E-05
(PID.TID 0000.0001) %MON surfExpan_theta_mean         =  -8.8931102466492E-13
(PID.TID 0000.0001) %MON surfExpan_salt_mean          =   6.6081619570499E-21
(PID.TID 0000.0001) // =======================================================
(PID.TID 0000.0001) // End MONITOR dynamic field statistics
(PID.TID 0000.0001) // =======================================================
(PID.TID 0000.0001) // =======================================================
(PID.TID 0000.0001) // Begin OBCS MONITOR field statistics
(PID.TID 0000.0001) // =======================================================
(PID.TID 0000.0001) %MON obc_S_vVel_max               =   2.4662324284857E-04
(PID.TID 0000.0001) %MON obc_S_vVel_min               =  -4.6867771021048E-02
(PID.TID 0000.0001) %MON obc_S_vVel_mean              =   7.6916878833960E-20
(PID.TID 0000.0001) %MON obc_S_vVel_sd                =   2.0998346481247E-03
(PID.TID 0000.0001) %MON obc_S_vVel_Int               =   1.3060486026006E-10
(PID.TID 0000.0001) // =======================================================
(PID.TID 0000.0001) // End OBCS MONITOR field statistics
(PID.TID 0000.0001) // =======================================================
 EXTERNAL_FIELDS_LOAD,       380 : iP,iLd,i0,i1=   19   20   19   20 ; Wght=  0.5000000000  0.5000000000
 cg2d: Sum(rhs),rhsMax =  -1.32160948851379E-12  1.67643092385647E-03
 EXTERNAL_FIELDS_LOAD,       381 : iP,iLd,i0,i1=   19   20   19   20 ; Wght=  0.4500000000  0.5500000000
 cg2d: Sum(rhs),rhsMax =  -6.39488462184090E-13  1.72445238068304E-03
 EXTERNAL_FIELDS_LOAD,       382 : iP,iLd,i0,i1=   19   20   19   20 ; Wght=  0.4000000000  0.6000000000
 cg2d: Sum(rhs),rhsMax =   1.10844666778576E-12  1.76030688790744E-03
 EXTERNAL_FIELDS_LOAD,       383 : iP,iLd,i0,i1=   19   20   19   20 ; Wght=  0.3500000000  0.6500000000
 cg2d: Sum(rhs),rhsMax =  -5.68434188608080E-13  1.78387857008744E-03
 EXTERNAL_FIELDS_LOAD,       384 : iP,iLd,i0,i1=   19   20   19   20 ; Wght=  0.3000000000  0.7000000000
 cg2d: Sum(rhs),rhsMax =   2.98427949019242E-13  1.79520491708769E-03
 EXTERNAL_FIELDS_LOAD,       385 : iP,iLd,i0,i1=   19   20   19   20 ; Wght=  0.2500000000  0.7500000000
 cg2d: Sum(rhs),rhsMax =  -7.10542735760100E-14  1.79447833940191E-03
 EXTERNAL_FIELDS_LOAD,       386 : iP,iLd,i0,i1=   19   20   19   20 ; Wght=  0.2000000000  0.8000000000
 cg2d: Sum(rhs),rhsMax =  -1.27897692436818E-13  1.78205293258139E-03
 EXTERNAL_FIELDS_LOAD,       387 : iP,iLd,i0,i1=   19   20   19   20 ; Wght=  0.1500000000  0.8500000000
 cg2d: Sum(rhs),rhsMax =  -1.13686837721616E-13  1.75842736671534E-03
 EXTERNAL_FIELDS_LOAD,       388 : iP,iLd,i0,i1=   19   20   19   20 ; Wght=  0.1000000000  0.9000000000
 cg2d: Sum(rhs),rhsMax =  -8.52651282912120E-14  1.72423262038376E-03
 EXTERNAL_FIELDS_LOAD,       389 : iP,iLd,i0,i1=   19   20   19   20 ; Wght=  0.0500000000  0.9500000000
 cg2d: Sum(rhs),rhsMax =   1.02318153949454E-12  1.68024197694801E-03
 EXTERNAL_FIELDS_LOAD,       390 : iP,iLd,i0,i1=   19   20   20   21 ; Wght=  1.0000000000  0.0000000000
 EXTERNAL_FIELDS_LOAD, it=       390 : Reading new data, i0,i1=   20   21 (prev=   19   20 )
(PID.TID 0000.0001)  MDS_READ_FIELD: opening global file: ../input/merid_halfgauss2p5hr_272x320.bin
(PID.TID 0000.0001)  MDS_READ_FIELD: opening global file: ../input/merid_halfgauss2p5hr_272x320.bin
 cg2d: Sum(rhs),rhsMax =   1.42108547152020E-12  1.62733189944249E-03
 EXTERNAL_FIELDS_LOAD,       391 : iP,iLd,i0,i1=   20   21   20   21 ; Wght=  0.9500000000  0.0500000000
 cg2d: Sum(rhs),rhsMax =   5.54223333892878E-13  1.56649459742699E-03
 EXTERNAL_FIELDS_LOAD,       392 : iP,iLd,i0,i1=   20   21   20   21 ; Wght=  0.9000000000  0.1000000000
 cg2d: Sum(rhs),rhsMax =   7.24753590475302E-13  1.49880937377383E-03
 EXTERNAL_FIELDS_LOAD,       393 : iP,iLd,i0,i1=   20   21   20   21 ; Wght=  0.8500000000  0.1500000000
 cg2d: Sum(rhs),rhsMax =  -5.11590769747272E-13  1.42542367806166E-03
 EXTERNAL_FIELDS_LOAD,       394 : iP,iLd,i0,i1=   20   21   20   21 ; Wght=  0.8000000000  0.2000000000
 cg2d: Sum(rhs),rhsMax =   4.26325641456060E-13  1.34753277554451E-03
 EXTERNAL_FIELDS_LOAD,       395 : iP,iLd,i0,i1=   20   21   20   21 ; Wght=  0.7500000000  0.2500000000
 cg2d: Sum(rhs),rhsMax =  -1.13686837721616E-13  1.26635844920342E-03
 EXTERNAL_FIELDS_LOAD,       396 : iP,iLd,i0,i1=   20   21   20   21 ; Wght=  0.7000000000  0.3000000000
 cg2d: Sum(rhs),rhsMax =   8.52651282912120E-14  1.18312717785332E-03
 EXTERNAL_FIELDS_LOAD,       397 : iP,iLd,i0,i1=   20   21   20   21 ; Wght=  0.6500000000  0.3500000000
 cg2d: Sum(rhs),rhsMax =  -8.38440428196918E-13  1.09904824484106E-03
 EXTERNAL_FIELDS_LOAD,       398 : iP,iLd,i0,i1=   20   21   20   21 ; Wght=  0.6000000000  0.4000000000
 cg2d: Sum(rhs),rhsMax =  -5.25801624462474E-13  1.01529223537136E-03
 EXTERNAL_FIELDS_LOAD,       399 : iP,iLd,i0,i1=   20   21   20   21 ; Wght=  0.5500000000  0.4500000000
 cg2d: Sum(rhs),rhsMax =  -5.54223333892878E-13  9.32970372244711E-04
(PID.TID 0000.0001)      cg2d_init_res =   1.61936574743884E+00
(PID.TID 0000.0001)      cg2d_iters(min,last) =      -1      36
(PID.TID 0000.0001)      cg2d_last_res =   9.08849468487050E-08
(PID.TID 0000.0001) // =======================================================
(PID.TID 0000.0001) // Begin MONITOR dynamic field statistics
(PID.TID 0000.0001) // =======================================================
(PID.TID 0000.0001) %MON time_tsnumber                =                   400
(PID.TID 0000.0001) %MON time_secondsf                =   2.4000000000000E+04
(PID.TID 0000.0001) %MON dynstat_eta_max              =   8.2682634920390E-04
(PID.TID 0000.0001) %MON dynstat_eta_min              =  -6.3194937176299E-04
(PID.TID 0000.0001) %MON dynstat_eta_mean             =   5.6101946410873E-20
(PID.TID 0000.0001) %MON dynstat_eta_sd               =   4.8284895609725E-04
(PID.TID 0000.0001) %MON dynstat_eta_del2             =   2.0322743334713E-08
(PID.TID 0000.0001) %MON dynstat_uvel_max             =   2.1144343125843E-02
(PID.TID 0000.0001) %MON dynstat_uvel_min             =  -8.5359184981454E-02
(PID.TID 0000.0001) %MON dynstat_uvel_mean            =   5.1433304790986E-05
(PID.TID 0000.0001) %MON dynstat_uvel_sd              =   3.4876497225153E-03
(PID.TID 0000.0001) %MON dynstat_uvel_del2            =   2.7409584085848E-07
(PID.TID 0000.0001) %MON dynstat_vvel_max             =   4.1719853760009E-02
(PID.TID 0000.0001) %MON dynstat_vvel_min             =  -1.4023972061285E-02
(PID.TID 0000.0001) %MON dynstat_vvel_mean            =  -5.8444080149834E-05
(PID.TID 0000.0001) %MON dynstat_vvel_sd              =   1.6719289456626E-03
(PID.TID 0000.0001) %MON dynstat_vvel_del2            =   2.3941774749659E-07
(PID.TID 0000.0001) %MON dynstat_wvel_max             =   5.4983735683894E-06
(PID.TID 0000.0001) %MON dynstat_wvel_min             =  -2.5660923816145E-05
(PID.TID 0000.0001) %MON dynstat_wvel_mean            =  -4.4757818542840E-08
(PID.TID 0000.0001) %MON dynstat_wvel_sd              =   9.8075491733552E-07
(PID.TID 0000.0001) %MON dynstat_wvel_del2            =   1.0332320259131E-09
(PID.TID 0000.0001) %MON dynstat_theta_max            =   1.6579458878989E+01
(PID.TID 0000.0001) %MON dynstat_theta_min            =   4.1845816603362E+00
(PID.TID 0000.0001) %MON dynstat_theta_mean           =   7.5988635047386E+00
(PID.TID 0000.0001) %MON dynstat_theta_sd             =   3.5908933464079E+00
(PID.TID 0000.0001) %MON dynstat_theta_del2           =   4.0746349039520E-08
(PID.TID 0000.0001) %MON dynstat_salt_max             =   3.4476101389556E+01
(PID.TID 0000.0001) %MON dynstat_salt_min             =   3.3629999999997E+01
(PID.TID 0000.0001) %MON dynstat_salt_mean            =   3.4188928007470E+01
(PID.TID 0000.0001) %MON dynstat_salt_sd              =   2.7007228799290E-01
(PID.TID 0000.0001) %MON dynstat_salt_del2            =   1.3997405377270E-09
(PID.TID 0000.0001) %MON trAdv_CFL_u_max              =   2.6261191114515E-03
(PID.TID 0000.0001) %MON trAdv_CFL_v_max              =   1.1499687503663E-03
(PID.TID 0000.0001) %MON trAdv_CFL_w_max              =   6.9421371429873E-04
(PID.TID 0000.0001) %MON advcfl_uvel_max              =   2.5942996759429E-03
(PID.TID 0000.0001) %MON advcfl_vvel_max              =   1.2457406318307E-03
(PID.TID 0000.0001) %MON advcfl_wvel_max              =   6.6862631452610E-04
(PID.TID 0000.0001) %MON advcfl_W_hf_max              =   7.0205763025241E-04
(PID.TID 0000.0001) %MON pe_b_mean                    =   1.1945979987525E-09
(PID.TID 0000.0001) %MON ke_max                       =   5.8442563734671E-03
(PID.TID 0000.0001) %MON ke_mean                      =   7.4812485923891E-06
(PID.TID 0000.0001) %MON ke_vol                       =   8.2635254160858E+14
(PID.TID 0000.0001) %MON vort_r_min                   =  -1.5991020294458E-05
(PID.TID 0000.0001) %MON vort_r_max                   =   4.3126844944104E-05
(PID.TID 0000.0001) %MON vort_a_mean                  =   6.9142466381008E-04
(PID.TID 0000.0001) %MON vort_a_sd                    =   1.4270133927627E-06
(PID.TID 0000.0001) %MON vort_p_mean                  =   6.9569812303954E-04
(PID.TID 0000.0001) %MON vort_p_sd                    =   9.4074150956969E-05
(PID.TID 0000.0001) %MON surfExpan_theta_mean         =   1.3850295033777E-12
(PID.TID 0000.0001) %MON surfExpan_salt_mean          =  -5.0572668038647E-21
(PID.TID 0000.0001) // =======================================================
(PID.TID 0000.0001) // End MONITOR dynamic field statistics
(PID.TID 0000.0001) // =======================================================
(PID.TID 0000.0001) // =======================================================
(PID.TID 0000.0001) // Begin OBCS MONITOR field statistics
(PID.TID 0000.0001) // =======================================================
(PID.TID 0000.0001) %MON obc_S_vVel_max               =   2.5111037992532E-02
(PID.TID 0000.0001) %MON obc_S_vVel_min               =  -1.1824997595006E-04
(PID.TID 0000.0001) %MON obc_S_vVel_mean              =  -2.1822617002290E-21
(PID.TID 0000.0001) %MON obc_S_vVel_sd                =   1.1245803703456E-03
(PID.TID 0000.0001) %MON obc_S_vVel_Int               =  -3.7054803669889E-12
(PID.TID 0000.0001) // =======================================================
(PID.TID 0000.0001) // End OBCS MONITOR field statistics
(PID.TID 0000.0001) // =======================================================
 EXTERNAL_FIELDS_LOAD,       400 : iP,iLd,i0,i1=   20   21   20   21 ; Wght=  0.5000000000  0.5000000000
 cg2d: Sum(rhs),rhsMax =   1.42108547152020E-14  8.53115120194943E-04
 EXTERNAL_FIELDS_LOAD,       401 : iP,iLd,i0,i1=   20   21   20   21 ; Wght=  0.4500000000  0.5500000000
 cg2d: Sum(rhs),rhsMax =  -2.84217094304040E-13  7.76662461528804E-04
 EXTERNAL_FIELDS_LOAD,       402 : iP,iLd,i0,i1=   20   21   20   21 ; Wght=  0.4000000000  0.6000000000
 cg2d: Sum(rhs),rhsMax =   1.13686837721616E-12  7.04436206952773E-04
 EXTERNAL_FIELDS_LOAD,       403 : iP,iLd,i0,i1=   20   21   20   21 ; Wght=  0.3500000000  0.6500000000
 cg2d: Sum(rhs),rhsMax =  -2.84217094304040E-13  6.37134660304893E-04
 EXTERNAL_FIELDS_LOAD,       404 : iP,iLd,i0,i1=   20   21   20   21 ; Wght=  0.3000000000  0.7000000000
 cg2d: Sum(rhs),rhsMax =  -5.82645043323282E-13  5.75319902246217E-04
 EXTERNAL_FIELDS_LOAD,       405 : iP,iLd,i0,i1=   20   21   20   21 ; Wght=  0.2500000000  0.7500000000
 cg2d: Sum(rhs),rhsMax =  -5.25801624462474E-13  5.19455646483724E-04
 EXTERNAL_FIELDS_LOAD,       406 : iP,iLd,i0,i1=   20   21   20   21 ; Wght=  0.2000000000  0.8000000000
 cg2d: Sum(rhs),rhsMax =   7.53175299905706E-13  4.69778532559324E-04
 EXTERNAL_FIELDS_LOAD,       407 : iP,iLd,i0,i1=   20   21   20   21 ; Wght=  0.1500000000  0.8500000000
 cg2d: Sum(rhs),rhsMax =   1.13686837721616E-13  4.26396808930337E-04
 EXTERNAL_FIELDS_LOAD,       408 : iP,iLd,i0,i1=   20   21   20   21 ; Wght=  0.1000000000  0.9000000000
 cg2d: Sum(rhs),rhsMax =  -4.12114786740858E-13  3.89277675724119E-04
 EXTERNAL_FIELDS_LOAD,       409 : iP,iLd,i0,i1=   20   21   20   21 ; Wght=  0.0500000000  0.9500000000
 cg2d: Sum(rhs),rhsMax =  -1.13686837721616E-12  3.58242662719385E-04
 EXTERNAL_FIELDS_LOAD,       410 : iP,iLd,i0,i1=   20   21   21   22 ; Wght=  1.0000000000  0.0000000000
 EXTERNAL_FIELDS_LOAD, it=       410 : Reading new data, i0,i1=   21   22 (prev=   20   21 )
(PID.TID 0000.0001)  MDS_READ_FIELD: opening global file: ../input/merid_halfgauss2p5hr_272x320.bin
(PID.TID 0000.0001)  MDS_READ_FIELD: opening global file: ../input/merid_halfgauss2p5hr_272x320.bin
 cg2d: Sum(rhs),rhsMax =  -8.38440428196918E-13  3.32974733401420E-04
 EXTERNAL_FIELDS_LOAD,       411 : iP,iLd,i0,i1=   21   22   21   22 ; Wght=  0.9500000000  0.0500000000
 cg2d: Sum(rhs),rhsMax =   3.55271367880050E-14  3.13028105442155E-04
 EXTERNAL_FIELDS_LOAD,       412 : iP,iLd,i0,i1=   21   22   21   22 ; Wght=  0.9000000000  0.1000000000
 cg2d: Sum(rhs),rhsMax =  -5.00932628710871E-13  2.97840552383057E-04
 EXTERNAL_FIELDS_LOAD,       413 : iP,iLd,i0,i1=   21   22   21   22 ; Wght=  0.8500000000  0.1500000000
 cg2d: Sum(rhs),rhsMax =  -6.27942142727989E-13  2.86747900858170E-04
 EXTERNAL_FIELDS_LOAD,       414 : iP,iLd,i0,i1=   21   22   21   22 ; Wght=  0.8000000000  0.2000000000
 cg2d: Sum(rhs),rhsMax =  -5.15143483426073E-13  2.79000394337962E-04
 EXTERNAL_FIELDS_LOAD,       415 : iP,iLd,i0,i1=   21   22   21   22 ; Wght=  0.7500000000  0.2500000000
 cg2d: Sum(rhs),rhsMax =  -5.11590769747272E-13  2.73780558850033E-04
 EXTERNAL_FIELDS_LOAD,       416 : iP,iLd,i0,i1=   21   22   21   22 ; Wght=  0.7000000000  0.3000000000
 cg2d: Sum(rhs),rhsMax =  -1.02318153949454E-12  2.70222179193614E-04
 EXTERNAL_FIELDS_LOAD,       417 : iP,iLd,i0,i1=   21   22   21   22 ; Wght=  0.6500000000  0.3500000000
 cg2d: Sum(rhs),rhsMax =  -1.62003743753303E-12  2.68026203886625E-04
 EXTERNAL_FIELDS_LOAD,       418 : iP,iLd,i0,i1=   21   22   21   22 ; Wght=  0.6000000000  0.4000000000
 cg2d: Sum(rhs),rhsMax =  -1.98951966012828E-12  3.09533822849200E-04
 EXTERNAL_FIELDS_LOAD,       419 : iP,iLd,i0,i1=   21   22   21   22 ; Wght=  0.5500000000  0.4500000000
 cg2d: Sum(rhs),rhsMax =  -7.10542735760100E-14  3.50161107741121E-04
(PID.TID 0000.0001)      cg2d_init_res =   6.36819451101517E+00
(PID.TID 0000.0001)      cg2d_iters(min,last) =      -1      38
(PID.TID 0000.0001)      cg2d_last_res =   9.85802920197721E-08
(PID.TID 0000.0001) // =======================================================
(PID.TID 0000.0001) // Begin MONITOR dynamic field statistics
(PID.TID 0000.0001) // =======================================================
(PID.TID 0000.0001) %MON time_tsnumber                =                   420
(PID.TID 0000.0001) %MON time_secondsf                =   2.5200000000000E+04
(PID.TID 0000.0001) %MON dynstat_eta_max              =   2.2219022797043E-04
(PID.TID 0000.0001) %MON dynstat_eta_min              =  -2.7979067276653E-04
(PID.TID 0000.0001) %MON dynstat_eta_mean             =   7.5521850937713E-21
(PID.TID 0000.0001) %MON dynstat_eta_sd               =   1.6348506592570E-04
(PID.TID 0000.0001) %MON dynstat_eta_del2             =   4.2396781300303E-08
(PID.TID 0000.0001) %MON dynstat_uvel_max             =   1.4483630973199E-02
(PID.TID 0000.0001) %MON dynstat_uvel_min             =  -4.2970254518612E-02
(PID.TID 0000.0001) %MON dynstat_uvel_mean            =  -1.4496308610933E-05
(PID.TID 0000.0001) %MON dynstat_uvel_sd              =   1.1312897256263E-03
(PID.TID 0000.0001) %MON dynstat_uvel_del2            =   2.5443585711794E-07
(PID.TID 0000.0001) %MON dynstat_vvel_max             =   8.6326145413496E-02
(PID.TID 0000.0001) %MON dynstat_vvel_min             =  -1.7510940465385E-02
(PID.TID 0000.0001) %MON dynstat_vvel_mean            =  -8.3954828171813E-05
(PID.TID 0000.0001) %MON dynstat_vvel_sd              =   3.6897756786340E-03
(PID.TID 0000.0001) %MON dynstat_vvel_del2            =   2.3914838865828E-07
(PID.TID 0000.0001) %MON dynstat_wvel_max             =   7.1353987010539E-06
(PID.TID 0000.0001) %MON dynstat_wvel_min             =  -3.1535887532044E-05
(PID.TID 0000.0001) %MON dynstat_wvel_mean            =  -1.5041341987106E-07
(PID.TID 0000.0001) %MON dynstat_wvel_sd              =   1.4332271446883E-06
(PID.TID 0000.0001) %MON dynstat_wvel_del2            =   9.5352403368483E-10
(PID.TID 0000.0001) %MON dynstat_theta_max            =   1.6579444303857E+01
(PID.TID 0000.0001) %MON dynstat_theta_min            =   4.1845884345656E+00
(PID.TID 0000.0001) %MON dynstat_theta_mean           =   7.5988657331967E+00
(PID.TID 0000.0001) %MON dynstat_theta_sd             =   3.5908945466411E+00
(PID.TID 0000.0001) %MON dynstat_theta_del2           =   4.2760936647748E-08
(PID.TID 0000.0001) %MON dynstat_salt_max             =   3.4476100699096E+01
(PID.TID 0000.0001) %MON dynstat_salt_min             =   3.3629999999997E+01
(PID.TID 0000.0001) %MON dynstat_salt_mean            =   3.4188927872721E+01
(PID.TID 0000.0001) %MON dynstat_salt_sd              =   2.7007233669308E-01
(PID.TID 0000.0001) %MON dynstat_salt_del2            =   1.4758710818399E-09
(PID.TID 0000.0001) %MON trAdv_CFL_u_max              =   1.3506700120684E-03
(PID.TID 0000.0001) %MON trAdv_CFL_v_max              =   2.5354331399696E-03
(PID.TID 0000.0001) %MON trAdv_CFL_w_max              =   9.3575470443614E-04
(PID.TID 0000.0001) %MON advcfl_uvel_max              =   1.2864045423317E-03
(PID.TID 0000.0001) %MON advcfl_vvel_max              =   2.5776693166168E-03
(PID.TID 0000.0001) %MON advcfl_wvel_max              =   9.0034281296754E-04
(PID.TID 0000.0001) %MON advcfl_W_hf_max              =   9.4535995361591E-04
(PID.TID 0000.0001) %MON pe_b_mean                    =   1.3694789550090E-10
(PID.TID 0000.0001) %MON ke_max                       =   4.3460943501235E-03
(PID.TID 0000.0001) %MON ke_mean                      =   7.4374523039081E-06
(PID.TID 0000.0001) %MON ke_vol                       =   8.2635254160858E+14
(PID.TID 0000.0001) %MON vort_r_min                   =  -1.0311449015903E-05
(PID.TID 0000.0001) %MON vort_r_max                   =   2.0710411619293E-05
(PID.TID 0000.0001) %MON vort_a_mean                  =   6.9142466381008E-04
(PID.TID 0000.0001) %MON vort_a_sd                    =   1.4213206606374E-06
(PID.TID 0000.0001) %MON vort_p_mean                  =   6.9569812303954E-04
(PID.TID 0000.0001) %MON vort_p_sd                    =   9.4070353333580E-05
(PID.TID 0000.0001) %MON surfExpan_theta_mean         =  -2.4529993046208E-13
(PID.TID 0000.0001) %MON surfExpan_salt_mean          =  -3.5738018747311E-21
(PID.TID 0000.0001) // =======================================================
(PID.TID 0000.0001) // End MONITOR dynamic field statistics
(PID.TID 0000.0001) // =======================================================
(PID.TID 0000.0001) // =======================================================
(PID.TID 0000.0001) // Begin OBCS MONITOR field statistics
(PID.TID 0000.0001) // =======================================================
(PID.TID 0000.0001) %MON obc_S_vVel_max               =   8.0150530219376E-02
(PID.TID 0000.0001) %MON obc_S_vVel_min               =  -3.4195429903034E-04
(PID.TID 0000.0001) %MON obc_S_vVel_mean              =  -1.9384258626982E-19
(PID.TID 0000.0001) %MON obc_S_vVel_sd                =   3.5905292497978E-03
(PID.TID 0000.0001) %MON obc_S_vVel_Int               =  -3.2914471148615E-10
(PID.TID 0000.0001) // =======================================================
(PID.TID 0000.0001) // End OBCS MONITOR field statistics
(PID.TID 0000.0001) // =======================================================
 EXTERNAL_FIELDS_LOAD,       420 : iP,iLd,i0,i1=   21   22   21   22 ; Wght=  0.5000000000  0.5000000000
 cg2d: Sum(rhs),rhsMax =  -5.25801624462474E-13  3.89926117124871E-04
 EXTERNAL_FIELDS_LOAD,       421 : iP,iLd,i0,i1=   21   22   21   22 ; Wght=  0.4500000000  0.5500000000
 cg2d: Sum(rhs),rhsMax =  -7.38964445190504E-13  4.28841028960657E-04
 EXTERNAL_FIELDS_LOAD,       422 : iP,iLd,i0,i1=   21   22   21   22 ; Wght=  0.4000000000  0.6000000000
 cg2d: Sum(rhs),rhsMax =  -2.84217094304040E-13  4.70605550547916E-04
 EXTERNAL_FIELDS_LOAD,       423 : iP,iLd,i0,i1=   21   22   21   22 ; Wght=  0.3500000000  0.6500000000
 cg2d: Sum(rhs),rhsMax =  -5.96855898038484E-13  5.14262641735216E-04
 EXTERNAL_FIELDS_LOAD,       424 : iP,iLd,i0,i1=   21   22   21   22 ; Wght=  0.3000000000  0.7000000000
 cg2d: Sum(rhs),rhsMax =   6.11066752753686E-13  5.56246322287149E-04
 EXTERNAL_FIELDS_LOAD,       425 : iP,iLd,i0,i1=   21   22   21   22 ; Wght=  0.2500000000  0.7500000000
 cg2d: Sum(rhs),rhsMax =  -1.43529632623540E-12  5.96436563964062E-04
 EXTERNAL_FIELDS_LOAD,       426 : iP,iLd,i0,i1=   21   22   21   22 ; Wght=  0.2000000000  0.8000000000
 cg2d: Sum(rhs),rhsMax =   1.56319401867222E-13  6.34727937675856E-04
 EXTERNAL_FIELDS_LOAD,       427 : iP,iLd,i0,i1=   21   22   21   22 ; Wght=  0.1500000000  0.8500000000
 cg2d: Sum(rhs),rhsMax =  -2.27373675443232E-13  6.71022309379797E-04
 EXTERNAL_FIELDS_LOAD,       428 : iP,iLd,i0,i1=   21   22   21   22 ; Wght=  0.1000000000  0.9000000000
 cg2d: Sum(rhs),rhsMax =  -1.33582034322899E-12  7.05229167956961E-04
 EXTERNAL_FIELDS_LOAD,       429 : iP,iLd,i0,i1=   21   22   21   22 ; Wght=  0.0500000000  0.9500000000
 cg2d: Sum(rhs),rhsMax =   8.38440428196918E-13  7.37265847625331E-04
 EXTERNAL_FIELDS_LOAD,       430 : iP,iLd,i0,i1=   21   22   22   23 ; Wght=  1.0000000000  0.0000000000
 EXTERNAL_FIELDS_LOAD, it=       430 : Reading new data, i0,i1=   22   23 (prev=   21   22 )
(PID.TID 0000.0001)  MDS_READ_FIELD: opening global file: ../input/merid_halfgauss2p5hr_272x320.bin
(PID.TID 0000.0001)  MDS_READ_FIELD: opening global file: ../input/merid_halfgauss2p5hr_272x320.bin
 cg2d: Sum(rhs),rhsMax =  -1.63424829224823E-12  7.67057645409108E-04
 EXTERNAL_FIELDS_LOAD,       431 : iP,iLd,i0,i1=   22   23   22   23 ; Wght=  0.9500000000  0.0500000000
 cg2d: Sum(rhs),rhsMax =  -6.67910171614494E-13  7.94537847560178E-04
 EXTERNAL_FIELDS_LOAD,       432 : iP,iLd,i0,i1=   22   23   22   23 ; Wght=  0.9000000000  0.1000000000
 cg2d: Sum(rhs),rhsMax =   6.82121026329696E-13  8.19647650091026E-04
 EXTERNAL_FIELDS_LOAD,       433 : iP,iLd,i0,i1=   22   23   22   23 ; Wght=  0.8500000000  0.1500000000
 cg2d: Sum(rhs),rhsMax =  -2.78532752417959E-12  8.42335997903647E-04
 EXTERNAL_FIELDS_LOAD,       434 : iP,iLd,i0,i1=   22   23   22   23 ; Wght=  0.8000000000  0.2000000000
 cg2d: Sum(rhs),rhsMax =  -2.55795384873636E-13  8.62559343802401E-04
 EXTERNAL_FIELDS_LOAD,       435 : iP,iLd,i0,i1=   22   23   22   23 ; Wght=  0.7500000000  0.2500000000
 cg2d: Sum(rhs),rhsMax =  -1.03739239420975E-12  8.80281347936315E-04
 EXTERNAL_FIELDS_LOAD,       436 : iP,iLd,i0,i1=   22   23   22   23 ; Wght=  0.7000000000  0.3000000000
 cg2d: Sum(rhs),rhsMax =  -9.23705556488130E-13  8.95472511599716E-04
 EXTERNAL_FIELDS_LOAD,       437 : iP,iLd,i0,i1=   22   23   22   23 ; Wght=  0.6500000000  0.3500000000
 cg2d: Sum(rhs),rhsMax =   1.56319401867222E-13  9.08109790177372E-04
 EXTERNAL_FIELDS_LOAD,       438 : iP,iLd,i0,i1=   22   23   22   23 ; Wght=  0.6000000000  0.4000000000
 cg2d: Sum(rhs),rhsMax =  -1.91846538655227E-12  9.23324049957008E-04
 EXTERNAL_FIELDS_LOAD,       439 : iP,iLd,i0,i1=   22   23   22   23 ; Wght=  0.5500000000  0.4500000000
 cg2d: Sum(rhs),rhsMax =  -1.98951966012828E-12  9.37389016471983E-04
(PID.TID 0000.0001)      cg2d_init_res =   6.99325786885297E-01
(PID.TID 0000.0001)      cg2d_iters(min,last) =      -1      34
(PID.TID 0000.0001)      cg2d_last_res =   6.85956982075290E-08
(PID.TID 0000.0001) // =======================================================
(PID.TID 0000.0001) // Begin MONITOR dynamic field statistics
(PID.TID 0000.0001) // =======================================================
(PID.TID 0000.0001) %MON time_tsnumber                =                   440
(PID.TID 0000.0001) %MON time_secondsf                =   2.6400000000000E+04
(PID.TID 0000.0001) %MON dynstat_eta_max              =   8.0893546021266E-04
(PID.TID 0000.0001) %MON dynstat_eta_min              =  -8.0920879186172E-04
(PID.TID 0000.0001) %MON dynstat_eta_mean             =   8.6310686785958E-20
(PID.TID 0000.0001) %MON dynstat_eta_sd               =   6.0278411287224E-04
(PID.TID 0000.0001) %MON dynstat_eta_del2             =   1.3600945689979E-08
(PID.TID 0000.0001) %MON dynstat_uvel_max             =   4.8773720562633E-02
(PID.TID 0000.0001) %MON dynstat_uvel_min             =  -1.3785177006193E-02
(PID.TID 0000.0001) %MON dynstat_uvel_mean            =  -6.2608153976738E-05
(PID.TID 0000.0001) %MON dynstat_uvel_sd              =   1.9645692241191E-03
(PID.TID 0000.0001) %MON dynstat_uvel_del2            =   2.2377433168605E-07
(PID.TID 0000.0001) %MON dynstat_vvel_max             =   8.3183806405715E-02
(PID.TID 0000.0001) %MON dynstat_vvel_min             =  -1.9803190109475E-02
(PID.TID 0000.0001) %MON dynstat_vvel_mean            =  -2.0422347419161E-05
(PID.TID 0000.0001) %MON dynstat_vvel_sd              =   3.3089311070212E-03
(PID.TID 0000.0001) %MON dynstat_vvel_del2            =   2.4572511466911E-07
(PID.TID 0000.0001) %MON dynstat_wvel_max             =   1.3886468927521E-05
(PID.TID 0000.0001) %MON dynstat_wvel_min             =  -3.5624878868352E-05
(PID.TID 0000.0001) %MON dynstat_wvel_mean            =  -1.5864780440357E-07
(PID.TID 0000.0001) %MON dynstat_wvel_sd              =   1.2331347063442E-06
(PID.TID 0000.0001) %MON dynstat_wvel_del2            =   9.3254302586440E-10
(PID.TID 0000.0001) %MON dynstat_theta_max            =   1.6579457872430E+01
(PID.TID 0000.0001) %MON dynstat_theta_min            =   4.1845920995761E+00
(PID.TID 0000.0001) %MON dynstat_theta_mean           =   7.5988691765477E+00
(PID.TID 0000.0001) %MON dynstat_theta_sd             =   3.5908970278501E+00
(PID.TID 0000.0001) %MON dynstat_theta_del2           =   4.2463952980778E-08
(PID.TID 0000.0001) %MON dynstat_salt_max             =   3.4476100325537E+01
(PID.TID 0000.0001) %MON dynstat_salt_min             =   3.3629999999997E+01
(PID.TID 0000.0001) %MON dynstat_salt_mean            =   3.4188927662837E+01
(PID.TID 0000.0001) %MON dynstat_salt_sd              =   2.7007244397000E-01
(PID.TID 0000.0001) %MON dynstat_salt_del2            =   1.5630315010363E-09
(PID.TID 0000.0001) %MON trAdv_CFL_u_max              =   1.3746721430075E-03
(PID.TID 0000.0001) %MON trAdv_CFL_v_max              =   2.5300266044573E-03
(PID.TID 0000.0001) %MON trAdv_CFL_w_max              =   9.8134662077440E-04
(PID.TID 0000.0001) %MON advcfl_uvel_max              =   1.4601441389123E-03
(PID.TID 0000.0001) %MON advcfl_vvel_max              =   2.4838401434970E-03
(PID.TID 0000.0001) %MON advcfl_wvel_max              =   9.2934466613092E-04
(PID.TID 0000.0001) %MON advcfl_W_hf_max              =   9.7158760550050E-04
(PID.TID 0000.0001) %MON pe_b_mean                    =   1.8617560940096E-09
(PID.TID 0000.0001) %MON ke_max                       =   4.7527292977262E-03
(PID.TID 0000.0001) %MON ke_mean                      =   7.3921077915366E-06
(PID.TID 0000.0001) %MON ke_vol                       =   8.2635254160858E+14
(PID.TID 0000.0001) %MON vort_r_min                   =  -1.4872282508459E-05
(PID.TID 0000.0001) %MON vort_r_max                   =   1.0721667129737E-05
(PID.TID 0000.0001) %MON vort_a_mean                  =   6.9142466381008E-04
(PID.TID 0000.0001) %MON vort_a_sd                    =   1.4200644179598E-06
(PID.TID 0000.0001) %MON vort_p_mean                  =   6.9569812303954E-04
(PID.TID 0000.0001) %MON vort_p_sd                    =   9.4064737208921E-05
(PID.TID 0000.0001) %MON surfExpan_theta_mean         =  -4.3779500906315E-13
(PID.TID 0000.0001) %MON surfExpan_salt_mean          =   2.6634938500354E-21
(PID.TID 0000.0001) // =======================================================
(PID.TID 0000.0001) // End MONITOR dynamic field statistics
(PID.TID 0000.0001) // =======================================================
(PID.TID 0000.0001) // =======================================================
(PID.TID 0000.0001) // Begin OBCS MONITOR field statistics
(PID.TID 0000.0001) // =======================================================
(PID.TID 0000.0001) %MON obc_S_vVel_max               =   8.3183806405715E-02
(PID.TID 0000.0001) %MON obc_S_vVel_min               =  -3.9711451790783E-04
(PID.TID 0000.0001) %MON obc_S_vVel_mean              =   1.1811412991499E-19
(PID.TID 0000.0001) %MON obc_S_vVel_sd                =   3.7271291556373E-03
(PID.TID 0000.0001) %MON obc_S_vVel_Int               =   2.0055779259565E-10
(PID.TID 0000.0001) // =======================================================
(PID.TID 0000.0001) // End OBCS MONITOR field statistics
(PID.TID 0000.0001) // =======================================================
 EXTERNAL_FIELDS_LOAD,       440 : iP,iLd,i0,i1=   22   23   22   23 ; Wght=  0.5000000000  0.5000000000
 cg2d: Sum(rhs),rhsMax =   5.96855898038484E-13  9.53136618948607E-04
 EXTERNAL_FIELDS_LOAD,       441 : iP,iLd,i0,i1=   22   23   22   23 ; Wght=  0.4500000000  0.5500000000
 cg2d: Sum(rhs),rhsMax =  -1.87583282240666E-12  9.70794427475844E-04
 EXTERNAL_FIELDS_LOAD,       442 : iP,iLd,i0,i1=   22   23   22   23 ; Wght=  0.4000000000  0.6000000000
 cg2d: Sum(rhs),rhsMax =  -1.22213350550737E-12  9.85978004936650E-04
 EXTERNAL_FIELDS_LOAD,       443 : iP,iLd,i0,i1=   22   23   22   23 ; Wght=  0.3500000000  0.6500000000
 cg2d: Sum(rhs),rhsMax =  -6.39488462184090E-13  1.02970091819479E-03
 EXTERNAL_FIELDS_LOAD,       444 : iP,iLd,i0,i1=   22   23   22   23 ; Wght=  0.3000000000  0.7000000000
 cg2d: Sum(rhs),rhsMax =  -1.70530256582424E-12  1.09958015452080E-03
 EXTERNAL_FIELDS_LOAD,       445 : iP,iLd,i0,i1=   22   23   22   23 ; Wght=  0.2500000000  0.7500000000
 cg2d: Sum(rhs),rhsMax =  -1.13686837721616E-12  1.16463258161846E-03
 EXTERNAL_FIELDS_LOAD,       446 : iP,iLd,i0,i1=   22   23   22   23 ; Wght=  0.2000000000  0.8000000000
 cg2d: Sum(rhs),rhsMax =  -9.66338120633736E-13  1.22422668460392E-03
 EXTERNAL_FIELDS_LOAD,       447 : iP,iLd,i0,i1=   22   23   22   23 ; Wght=  0.1500000000  0.8500000000
 cg2d: Sum(rhs),rhsMax =  -3.55271367880050E-13  1.27781228345864E-03
 EXTERNAL_FIELDS_LOAD,       448 : iP,iLd,i0,i1=   22   23   22   23 ; Wght=  0.1000000000  0.9000000000
 cg2d: Sum(rhs),rhsMax =   1.42108547152020E-14  1.32492777499557E-03
 EXTERNAL_FIELDS_LOAD,       449 : iP,iLd,i0,i1=   22   23   22   23 ; Wght=  0.0500000000  0.9500000000
 cg2d: Sum(rhs),rhsMax =  -2.27373675443232E-13  1.36520548178934E-03
 EXTERNAL_FIELDS_LOAD,       450 : iP,iLd,i0,i1=   22   23   23   24 ; Wght=  1.0000000000  0.0000000000
 EXTERNAL_FIELDS_LOAD, it=       450 : Reading new data, i0,i1=   23   24 (prev=   22   23 )
(PID.TID 0000.0001)  MDS_READ_FIELD: opening global file: ../input/merid_halfgauss2p5hr_272x320.bin
(PID.TID 0000.0001)  MDS_READ_FIELD: opening global file: ../input/merid_halfgauss2p5hr_272x320.bin
 cg2d: Sum(rhs),rhsMax =  -1.70530256582424E-13  1.39837506035976E-03
 EXTERNAL_FIELDS_LOAD,       451 : iP,iLd,i0,i1=   23   24   23   24 ; Wght=  0.9500000000  0.0500000000
 cg2d: Sum(rhs),rhsMax =  -7.67386154620908E-13  1.42426496279185E-03
 EXTERNAL_FIELDS_LOAD,       452 : iP,iLd,i0,i1=   23   24   23   24 ; Wght=  0.9000000000  0.1000000000
 cg2d: Sum(rhs),rhsMax =   2.13162820728030E-13  1.44280198761072E-03
 EXTERNAL_FIELDS_LOAD,       453 : iP,iLd,i0,i1=   23   24   23   24 ; Wght=  0.8500000000  0.1500000000
 cg2d: Sum(rhs),rhsMax =  -4.26325641456060E-13  1.45400899398792E-03
 EXTERNAL_FIELDS_LOAD,       454 : iP,iLd,i0,i1=   23   24   23   24 ; Wght=  0.8000000000  0.2000000000
 cg2d: Sum(rhs),rhsMax =  -8.24229573481716E-13  1.45800088961294E-03
 EXTERNAL_FIELDS_LOAD,       455 : iP,iLd,i0,i1=   23   24   23   24 ; Wght=  0.7500000000  0.2500000000
 cg2d: Sum(rhs),rhsMax =  -9.80548975348938E-13  1.45497903506860E-03
 EXTERNAL_FIELDS_LOAD,       456 : iP,iLd,i0,i1=   23   24   23   24 ; Wght=  0.7000000000  0.3000000000
 cg2d: Sum(rhs),rhsMax =  -5.25801624462474E-13  1.44522423640625E-03
 EXTERNAL_FIELDS_LOAD,       457 : iP,iLd,i0,i1=   23   24   23   24 ; Wght=  0.6500000000  0.3500000000
 cg2d: Sum(rhs),rhsMax =  -9.23705556488130E-13  1.42908852104282E-03
 EXTERNAL_FIELDS_LOAD,       458 : iP,iLd,i0,i1=   23   24   23   24 ; Wght=  0.6000000000  0.4000000000
 cg2d: Sum(rhs),rhsMax =  -2.98427949019242E-13  1.40698591225521E-03
 EXTERNAL_FIELDS_LOAD,       459 : iP,iLd,i0,i1=   23   24   23   24 ; Wght=  0.5500000000  0.4500000000
 cg2d: Sum(rhs),rhsMax =   2.13162820728030E-13  1.37938242981306E-03
(PID.TID 0000.0001)      cg2d_init_res =   1.22653566738102E+00
(PID.TID 0000.0001)      cg2d_iters(min,last) =      -1      35
(PID.TID 0000.0001)      cg2d_last_res =   8.89295440039810E-08
(PID.TID 0000.0001) // =======================================================
(PID.TID 0000.0001) // Begin MONITOR dynamic field statistics
(PID.TID 0000.0001) // =======================================================
(PID.TID 0000.0001) %MON time_tsnumber                =                   460
(PID.TID 0000.0001) %MON time_secondsf                =   2.7600000000000E+04
(PID.TID 0000.0001) %MON dynstat_eta_max              =   6.4878444037382E-04
(PID.TID 0000.0001) %MON dynstat_eta_min              =  -1.2115137462047E-03
(PID.TID 0000.0001) %MON dynstat_eta_mean             =   1.4025486602718E-19
(PID.TID 0000.0001) %MON dynstat_eta_sd               =   3.8411545659853E-04
(PID.TID 0000.0001) %MON dynstat_eta_del2             =   9.6656758852931E-08
(PID.TID 0000.0001) %MON dynstat_uvel_max             =   9.0209574790262E-02
(PID.TID 0000.0001) %MON dynstat_uvel_min             =  -1.6589545612199E-02
(PID.TID 0000.0001) %MON dynstat_uvel_mean            =  -4.1683789240444E-05
(PID.TID 0000.0001) %MON dynstat_uvel_sd              =   3.7488291581367E-03
(PID.TID 0000.0001) %MON dynstat_uvel_del2            =   2.2893095962168E-07
(PID.TID 0000.0001) %MON dynstat_vvel_max             =   3.8998007075348E-02
(PID.TID 0000.0001) %MON dynstat_vvel_min             =  -1.2392162789589E-02
(PID.TID 0000.0001) %MON dynstat_vvel_mean            =   6.5684594138470E-05
(PID.TID 0000.0001) %MON dynstat_vvel_sd              =   8.0201114844147E-04
(PID.TID 0000.0001) %MON dynstat_vvel_del2            =   2.2621542057591E-07
(PID.TID 0000.0001) %MON dynstat_wvel_max             =   1.6782941883076E-05
(PID.TID 0000.0001) %MON dynstat_wvel_min             =  -1.9149029910641E-05
(PID.TID 0000.0001) %MON dynstat_wvel_mean            =  -6.5433633219778E-08
(PID.TID 0000.0001) %MON dynstat_wvel_sd              =   7.2987545598775E-07
(PID.TID 0000.0001) %MON dynstat_wvel_del2            =   9.0380686161534E-10
(PID.TID 0000.0001) %MON dynstat_theta_max            =   1.6579447270530E+01
(PID.TID 0000.0001) %MON dynstat_theta_min            =   4.1845915498868E+00
(PID.TID 0000.0001) %MON dynstat_theta_mean           =   7.5988716287978E+00
(PID.TID 0000.0001) %MON dynstat_theta_sd             =   3.5908983914691E+00
(PID.TID 0000.0001) %MON dynstat_theta_del2           =   3.6809068997068E-08
(PID.TID 0000.0001) %MON dynstat_salt_max             =   3.4476100381564E+01
(PID.TID 0000.0001) %MON dynstat_salt_min             =   3.3629999999997E+01
(PID.TID 0000.0001) %MON dynstat_salt_mean            =   3.4188927512177E+01
(PID.TID 0000.0001) %MON dynstat_salt_sd              =   2.7007250063182E-01
(PID.TID 0000.0001) %MON dynstat_salt_del2            =   1.3651115749184E-09
(PID.TID 0000.0001) %MON trAdv_CFL_u_max              =   2.6803144364232E-03
(PID.TID 0000.0001) %MON trAdv_CFL_v_max              =   1.2456810815111E-03
(PID.TID 0000.0001) %MON trAdv_CFL_w_max              =   5.6032752332505E-04
(PID.TID 0000.0001) %MON advcfl_uvel_max              =   2.7006154125735E-03
(PID.TID 0000.0001) %MON advcfl_vvel_max              =   1.1644672163436E-03
(PID.TID 0000.0001) %MON advcfl_wvel_max              =   4.9953991071237E-04
(PID.TID 0000.0001) %MON advcfl_W_hf_max              =   5.2224627029020E-04
(PID.TID 0000.0001) %MON pe_b_mean                    =   7.5600167168083E-10
(PID.TID 0000.0001) %MON ke_max                       =   6.3447482994904E-03
(PID.TID 0000.0001) %MON ke_mean                      =   7.3492701400090E-06
(PID.TID 0000.0001) %MON ke_vol                       =   8.2635254160858E+14
(PID.TID 0000.0001) %MON vort_r_min                   =  -4.0700574893221E-05
(PID.TID 0000.0001) %MON vort_r_max                   =   1.3872513559126E-05
(PID.TID 0000.0001) %MON vort_a_mean                  =   6.9142466381008E-04
(PID.TID 0000.0001) %MON vort_a_sd                    =   1.4252563301652E-06
(PID.TID 0000.0001) %MON vort_p_mean                  =   6.9569812303954E-04
(PID.TID 0000.0001) %MON vort_p_sd                    =   9.4059793653668E-05
(PID.TID 0000.0001) %MON surfExpan_theta_mean         =   1.0890345382042E-12
(PID.TID 0000.0001) %MON surfExpan_salt_mean          =   3.9109529949887E-21
(PID.TID 0000.0001) // =======================================================
(PID.TID 0000.0001) // End MONITOR dynamic field statistics
(PID.TID 0000.0001) // =======================================================
(PID.TID 0000.0001) // =======================================================
(PID.TID 0000.0001) // Begin OBCS MONITOR field statistics
(PID.TID 0000.0001) // =======================================================
(PID.TID 0000.0001) %MON obc_S_vVel_max               =   3.2770323006631E-02
(PID.TID 0000.0001) %MON obc_S_vVel_min               =  -1.9447493798471E-04
(PID.TID 0000.0001) %MON obc_S_vVel_mean              =   8.6505858097766E-21
(PID.TID 0000.0001) %MON obc_S_vVel_sd                =   1.4687718139970E-03
(PID.TID 0000.0001) %MON obc_S_vVel_Int               =   1.4688694705001E-11
(PID.TID 0000.0001) // =======================================================
(PID.TID 0000.0001) // End OBCS MONITOR field statistics
(PID.TID 0000.0001) // =======================================================
 EXTERNAL_FIELDS_LOAD,       460 : iP,iLd,i0,i1=   23   24   23   24 ; Wght=  0.5000000000  0.5000000000
 cg2d: Sum(rhs),rhsMax =  -2.70006239588838E-13  1.34678555389342E-03
 EXTERNAL_FIELDS_LOAD,       461 : iP,iLd,i0,i1=   23   24   23   24 ; Wght=  0.4500000000  0.5500000000
 cg2d: Sum(rhs),rhsMax =  -7.38964445190504E-13  1.30973339195514E-03
 EXTERNAL_FIELDS_LOAD,       462 : iP,iLd,i0,i1=   23   24   23   24 ; Wght=  0.4000000000  0.6000000000
 cg2d: Sum(rhs),rhsMax =  -5.47117906535277E-13  1.26881514181913E-03
 EXTERNAL_FIELDS_LOAD,       463 : iP,iLd,i0,i1=   23   24   23   24 ; Wght=  0.3500000000  0.6500000000
 cg2d: Sum(rhs),rhsMax =  -6.25277607468888E-13  1.22457896628519E-03
 EXTERNAL_FIELDS_LOAD,       464 : iP,iLd,i0,i1=   23   24   23   24 ; Wght=  0.3000000000  0.7000000000
 cg2d: Sum(rhs),rhsMax =   3.05533376376843E-13  1.17757972447901E-03
 EXTERNAL_FIELDS_LOAD,       465 : iP,iLd,i0,i1=   23   24   23   24 ; Wght=  0.2500000000  0.7500000000
 cg2d: Sum(rhs),rhsMax =  -2.84217094304040E-14  1.12836240061661E-03
 EXTERNAL_FIELDS_LOAD,       466 : iP,iLd,i0,i1=   23   24   23   24 ; Wght=  0.2000000000  0.8000000000
 cg2d: Sum(rhs),rhsMax =  -5.54223333892878E-13  1.07746099230391E-03
 EXTERNAL_FIELDS_LOAD,       467 : iP,iLd,i0,i1=   23   24   23   24 ; Wght=  0.1500000000  0.8500000000
 cg2d: Sum(rhs),rhsMax =  -8.66862137627322E-13  1.02538156822145E-03
 EXTERNAL_FIELDS_LOAD,       468 : iP,iLd,i0,i1=   23   24   23   24 ; Wght=  0.1000000000  0.9000000000
 cg2d: Sum(rhs),rhsMax =  -6.00408611717285E-13  9.72595286374197E-04
 EXTERNAL_FIELDS_LOAD,       469 : iP,iLd,i0,i1=   23   24   23   24 ; Wght=  0.0500000000  0.9500000000
 cg2d: Sum(rhs),rhsMax =  -6.96331881044898E-13  9.19532568665813E-04
 EXTERNAL_FIELDS_LOAD,       470 : iP,iLd,i0,i1=   23   24   24   25 ; Wght=  1.0000000000  0.0000000000
 EXTERNAL_FIELDS_LOAD, it=       470 : Reading new data, i0,i1=   24   25 (prev=   23   24 )
(PID.TID 0000.0001)  MDS_READ_FIELD: opening global file: ../input/merid_halfgauss2p5hr_272x320.bin
(PID.TID 0000.0001)  MDS_READ_FIELD: opening global file: ../input/merid_halfgauss2p5hr_272x320.bin
 cg2d: Sum(rhs),rhsMax =  -5.31130694980675E-13  8.66578503762628E-04
 EXTERNAL_FIELDS_LOAD,       471 : iP,iLd,i0,i1=   24   25   24   25 ; Wght=  0.9500000000  0.0500000000
 cg2d: Sum(rhs),rhsMax =  -7.07878200501000E-13  8.14069520510356E-04
 EXTERNAL_FIELDS_LOAD,       472 : iP,iLd,i0,i1=   24   25   24   25 ; Wght=  0.9000000000  0.1000000000
 cg2d: Sum(rhs),rhsMax =  -8.32667268468867E-13  7.62291343620171E-04
 EXTERNAL_FIELDS_LOAD,       473 : iP,iLd,i0,i1=   24   25   24   25 ; Wght=  0.8500000000  0.1500000000
 cg2d: Sum(rhs),rhsMax =  -1.12798659301916E-12  7.11478214520316E-04
 EXTERNAL_FIELDS_LOAD,       474 : iP,iLd,i0,i1=   24   25   24   25 ; Wght=  0.8000000000  0.2000000000
 cg2d: Sum(rhs),rhsMax =  -9.62785406954936E-13  6.61813332378104E-04
 EXTERNAL_FIELDS_LOAD,       475 : iP,iLd,i0,i1=   24   25   24   25 ; Wght=  0.7500000000  0.2500000000
 cg2d: Sum(rhs),rhsMax =  -4.05009359383257E-13  6.13430444569121E-04
 EXTERNAL_FIELDS_LOAD,       476 : iP,iLd,i0,i1=   24   25   24   25 ; Wght=  0.7000000000  0.3000000000
 cg2d: Sum(rhs),rhsMax =  -6.18172180111287E-13  5.66416492641177E-04
 EXTERNAL_FIELDS_LOAD,       477 : iP,iLd,i0,i1=   24   25   24   25 ; Wght=  0.6500000000  0.3500000000
 cg2d: Sum(rhs),rhsMax =   8.52651282912120E-14  5.20815199631776E-04
 EXTERNAL_FIELDS_LOAD,       478 : iP,iLd,i0,i1=   24   25   24   25 ; Wght=  0.6000000000  0.4000000000
 cg2d: Sum(rhs),rhsMax =  -2.98427949019242E-13  4.76631467525190E-04
 EXTERNAL_FIELDS_LOAD,       479 : iP,iLd,i0,i1=   24   25   24   25 ; Wght=  0.5500000000  0.4500000000
 cg2d: Sum(rhs),rhsMax =  -9.23705556488130E-13  4.82836950772458E-04
(PID.TID 0000.0001)      cg2d_init_res =   4.11053823329878E+00
(PID.TID 0000.0001)      cg2d_iters(min,last) =      -1      38
(PID.TID 0000.0001)      cg2d_last_res =   7.55252747288908E-08
(PID.TID 0000.0001) // =======================================================
(PID.TID 0000.0001) // Begin MONITOR dynamic field statistics
(PID.TID 0000.0001) // =======================================================
(PID.TID 0000.0001) %MON time_tsnumber                =                   480
(PID.TID 0000.0001) %MON time_secondsf                =   2.8800000000000E+04
(PID.TID 0000.0001) %MON dynstat_eta_max              =   4.1413746591157E-04
(PID.TID 0000.0001) %MON dynstat_eta_min              =  -4.0910369099386E-04
(PID.TID 0000.0001) %MON dynstat_eta_mean             =   1.0788835848245E-21
(PID.TID 0000.0001) %MON dynstat_eta_sd               =   2.5694907370151E-04
(PID.TID 0000.0001) %MON dynstat_eta_del2             =   1.2961576934534E-07
(PID.TID 0000.0001) %MON dynstat_uvel_max             =   7.9015409850791E-02
(PID.TID 0000.0001) %MON dynstat_uvel_min             =  -1.6714575451240E-02
(PID.TID 0000.0001) %MON dynstat_uvel_mean            =   2.5101939742812E-05
(PID.TID 0000.0001) %MON dynstat_uvel_sd              =   3.0970899712182E-03
(PID.TID 0000.0001) %MON dynstat_uvel_del2            =   2.3501667672758E-07
(PID.TID 0000.0001) %MON dynstat_vvel_max             =   1.3295789004705E-02
(PID.TID 0000.0001) %MON dynstat_vvel_min             =  -5.6486870464343E-02
(PID.TID 0000.0001) %MON dynstat_vvel_mean            =   7.7476638981855E-05
(PID.TID 0000.0001) %MON dynstat_vvel_sd              =   2.2399833141286E-03
(PID.TID 0000.0001) %MON dynstat_vvel_del2            =   1.9806867876514E-07
(PID.TID 0000.0001) %MON dynstat_wvel_max             =   2.5587687842330E-05
(PID.TID 0000.0001) %MON dynstat_wvel_min             =  -7.0911712938148E-06
(PID.TID 0000.0001) %MON dynstat_wvel_mean            =   7.0096045287352E-08
(PID.TID 0000.0001) %MON dynstat_wvel_sd              =   1.1087738203110E-06
(PID.TID 0000.0001) %MON dynstat_wvel_del2            =   8.6864850310650E-10
(PID.TID 0000.0001) %MON dynstat_theta_max            =   1.6579432330614E+01
(PID.TID 0000.0001) %MON dynstat_theta_min            =   4.1845915007899E+00
(PID.TID 0000.0001) %MON dynstat_theta_mean           =   7.5988715082293E+00
(PID.TID 0000.0001) %MON dynstat_theta_sd             =   3.5908969381455E+00
(PID.TID 0000.0001) %MON dynstat_theta_del2           =   2.9551803707143E-08
(PID.TID 0000.0001) %MON dynstat_salt_max             =   3.4476100386569E+01
(PID.TID 0000.0001) %MON dynstat_salt_min             =   3.3629999999997E+01
(PID.TID 0000.0001) %MON dynstat_salt_mean            =   3.4188927517694E+01
(PID.TID 0000.0001) %MON dynstat_salt_sd              =   2.7007242906332E-01
(PID.TID 0000.0001) %MON dynstat_salt_del2            =   9.8058473511465E-10
(PID.TID 0000.0001) %MON trAdv_CFL_u_max              =   2.4672269785846E-03
(PID.TID 0000.0001) %MON trAdv_CFL_v_max              =   1.5986775951797E-03
(PID.TID 0000.0001) %MON trAdv_CFL_w_max              =   6.1160850654894E-04
(PID.TID 0000.0001) %MON advcfl_uvel_max              =   2.4182843588515E-03
(PID.TID 0000.0001) %MON advcfl_vvel_max              =   1.6866787239278E-03
(PID.TID 0000.0001) %MON advcfl_wvel_max              =   6.4835969862372E-04
(PID.TID 0000.0001) %MON advcfl_W_hf_max              =   6.8077768355490E-04
(PID.TID 0000.0001) %MON pe_b_mean                    =   3.3829322638089E-10
(PID.TID 0000.0001) %MON ke_max                       =   5.6173455565759E-03
(PID.TID 0000.0001) %MON ke_mean                      =   7.3049503168294E-06
(PID.TID 0000.0001) %MON ke_vol                       =   8.2635254160858E+14
(PID.TID 0000.0001) %MON vort_r_min                   =  -4.0200953514417E-05
(PID.TID 0000.0001) %MON vort_r_max                   =   1.3816887971342E-05
(PID.TID 0000.0001) %MON vort_a_mean                  =   6.9142466381008E-04
(PID.TID 0000.0001) %MON vort_a_sd                    =   1.4255271413904E-06
(PID.TID 0000.0001) %MON vort_p_mean                  =   6.9569812303954E-04
(PID.TID 0000.0001) %MON vort_p_sd                    =   9.4058756634181E-05
(PID.TID 0000.0001) %MON surfExpan_theta_mean         =   1.8789683635499E-13
(PID.TID 0000.0001) %MON surfExpan_salt_mean          =  -1.7531858253398E-21
(PID.TID 0000.0001) // =======================================================
(PID.TID 0000.0001) // End MONITOR dynamic field statistics
(PID.TID 0000.0001) // =======================================================
(PID.TID 0000.0001) // =======================================================
(PID.TID 0000.0001) // Begin OBCS MONITOR field statistics
(PID.TID 0000.0001) // =======================================================
(PID.TID 0000.0001) %MON obc_S_vVel_max               =   1.6835646226484E-04
(PID.TID 0000.0001) %MON obc_S_vVel_min               =  -3.8745180712963E-02
(PID.TID 0000.0001) %MON obc_S_vVel_mean              =   7.1941405849162E-20
(PID.TID 0000.0001) %MON obc_S_vVel_sd                =   1.7362725359974E-03
(PID.TID 0000.0001) %MON obc_S_vVel_Int               =   1.2215650713188E-10
(PID.TID 0000.0001) // =======================================================
(PID.TID 0000.0001) // End OBCS MONITOR field statistics
(PID.TID 0000.0001) // =======================================================
 EXTERNAL_FIELDS_LOAD,       480 : iP,iLd,i0,i1=   24   25   24   25 ; Wght=  0.5000000000  0.5000000000
 cg2d: Sum(rhs),rhsMax =  -5.11590769747272E-13  5.38630348264736E-04
 EXTERNAL_FIELDS_LOAD,       481 : iP,iLd,i0,i1=   24   25   24   25 ; Wght=  0.4500000000  0.5500000000
 cg2d: Sum(rhs),rhsMax =  -4.40536496171262E-13  5.92158037217647E-04
 EXTERNAL_FIELDS_LOAD,       482 : iP,iLd,i0,i1=   24   25   24   25 ; Wght=  0.4000000000  0.6000000000
 cg2d: Sum(rhs),rhsMax =  -1.39266376208980E-12  6.43202016576065E-04
 EXTERNAL_FIELDS_LOAD,       483 : iP,iLd,i0,i1=   24   25   24   25 ; Wght=  0.3500000000  0.6500000000
 cg2d: Sum(rhs),rhsMax =  -1.77635683940025E-12  6.91559814501453E-04
 EXTERNAL_FIELDS_LOAD,       484 : iP,iLd,i0,i1=   24   25   24   25 ; Wght=  0.3000000000  0.7000000000
 cg2d: Sum(rhs),rhsMax =  -6.53699316899292E-13  7.37045591514397E-04
 EXTERNAL_FIELDS_LOAD,       485 : iP,iLd,i0,i1=   24   25   24   25 ; Wght=  0.2500000000  0.7500000000
 cg2d: Sum(rhs),rhsMax =   3.97903932025656E-13  7.79491071789324E-04
 EXTERNAL_FIELDS_LOAD,       486 : iP,iLd,i0,i1=   24   25   24   25 ; Wght=  0.2000000000  0.8000000000
 cg2d: Sum(rhs),rhsMax =  -6.96331881044898E-13  8.18746292871770E-04
 EXTERNAL_FIELDS_LOAD,       487 : iP,iLd,i0,i1=   24   25   24   25 ; Wght=  0.1500000000  0.8500000000
 cg2d: Sum(rhs),rhsMax =   1.13686837721616E-13  8.54680168316340E-04
 EXTERNAL_FIELDS_LOAD,       488 : iP,iLd,i0,i1=   24   25   24   25 ; Wght=  0.1000000000  0.9000000000
 cg2d: Sum(rhs),rhsMax =   5.25801624462474E-13  8.87180926493470E-04
 EXTERNAL_FIELDS_LOAD,       489 : iP,iLd,i0,i1=   24   25   24   25 ; Wght=  0.0500000000  0.9500000000
 cg2d: Sum(rhs),rhsMax =   1.67688085639384E-12  9.16156401041429E-04
 EXTERNAL_FIELDS_LOAD,       490 : iP,iLd,i0,i1=   24   25   25   26 ; Wght=  1.0000000000  0.0000000000
 EXTERNAL_FIELDS_LOAD, it=       490 : Reading new data, i0,i1=   25   26 (prev=   24   25 )
(PID.TID 0000.0001)  MDS_READ_FIELD: opening global file: ../input/merid_halfgauss2p5hr_272x320.bin
(PID.TID 0000.0001)  MDS_READ_FIELD: opening global file: ../input/merid_halfgauss2p5hr_272x320.bin
 cg2d: Sum(rhs),rhsMax =  -1.97530880541308E-12  9.43051824692847E-04
 EXTERNAL_FIELDS_LOAD,       491 : iP,iLd,i0,i1=   25   26   25   26 ; Wght=  0.9500000000  0.0500000000
 cg2d: Sum(rhs),rhsMax =  -2.60058641288197E-12  9.66437938151081E-04
 EXTERNAL_FIELDS_LOAD,       492 : iP,iLd,i0,i1=   25   26   25   26 ; Wght=  0.9000000000  0.1000000000
 cg2d: Sum(rhs),rhsMax =  -1.52056145452661E-12  9.86093955807771E-04
 EXTERNAL_FIELDS_LOAD,       493 : iP,iLd,i0,i1=   25   26   25   26 ; Wght=  0.8500000000  0.1500000000
 cg2d: Sum(rhs),rhsMax =  -4.26325641456060E-14  1.00199715722252E-03
 EXTERNAL_FIELDS_LOAD,       494 : iP,iLd,i0,i1=   25   26   25   26 ; Wght=  0.8000000000  0.2000000000
 cg2d: Sum(rhs),rhsMax =  -1.49213974509621E-12  1.01414390476058E-03
 EXTERNAL_FIELDS_LOAD,       495 : iP,iLd,i0,i1=   25   26   25   26 ; Wght=  0.7500000000  0.2500000000
 cg2d: Sum(rhs),rhsMax =  -1.42108547152020E-12  1.02254905179480E-03
 EXTERNAL_FIELDS_LOAD,       496 : iP,iLd,i0,i1=   25   26   25   26 ; Wght=  0.7000000000  0.3000000000
 cg2d: Sum(rhs),rhsMax =  -1.35003119794419E-12  1.02724524378053E-03
 EXTERNAL_FIELDS_LOAD,       497 : iP,iLd,i0,i1=   25   26   25   26 ; Wght=  0.6500000000  0.3500000000
 cg2d: Sum(rhs),rhsMax =  -9.66338120633736E-13  1.02828210778130E-03
 EXTERNAL_FIELDS_LOAD,       498 : iP,iLd,i0,i1=   25   26   25   26 ; Wght=  0.6000000000  0.4000000000
 cg2d: Sum(rhs),rhsMax =  -1.64845914696343E-12  1.02572527646918E-03
 EXTERNAL_FIELDS_LOAD,       499 : iP,iLd,i0,i1=   25   26   25   26 ; Wght=  0.5500000000  0.4500000000
 cg2d: Sum(rhs),rhsMax =   7.53175299905706E-13  1.01965528774260E-03
(PID.TID 0000.0001)      cg2d_init_res =   2.79093082804520E-01
(PID.TID 0000.0001)      cg2d_iters(min,last) =      -1      31
(PID.TID 0000.0001)      cg2d_last_res =   7.48659594839420E-08
(PID.TID 0000.0001) // =======================================================
(PID.TID 0000.0001) // Begin MONITOR dynamic field statistics
(PID.TID 0000.0001) // =======================================================
(PID.TID 0000.0001) %MON time_tsnumber                =                   500
(PID.TID 0000.0001) %MON time_secondsf                =   3.0000000000000E+04
(PID.TID 0000.0001) %MON dynstat_eta_max              =   8.1379996174682E-04
(PID.TID 0000.0001) %MON dynstat_eta_min              =  -8.9034411154122E-04
(PID.TID 0000.0001) %MON dynstat_eta_mean             =   3.3661167846524E-19
(PID.TID 0000.0001) %MON dynstat_eta_sd               =   5.8881981454857E-04
(PID.TID 0000.0001) %MON dynstat_eta_del2             =   1.1098392661383E-07
(PID.TID 0000.0001) %MON dynstat_uvel_max             =   3.1546162961798E-02
(PID.TID 0000.0001) %MON dynstat_uvel_min             =  -9.6021029685333E-03
(PID.TID 0000.0001) %MON dynstat_uvel_mean            =   6.1787213094669E-05
(PID.TID 0000.0001) %MON dynstat_uvel_sd              =   4.7436941313837E-04
(PID.TID 0000.0001) %MON dynstat_uvel_del2            =   2.0849179461303E-07
(PID.TID 0000.0001) %MON dynstat_vvel_max             =   1.5835313613327E-02
(PID.TID 0000.0001) %MON dynstat_vvel_min             =  -9.0939409292570E-02
(PID.TID 0000.0001) %MON dynstat_vvel_mean            =   2.2810683385756E-06
(PID.TID 0000.0001) %MON dynstat_vvel_sd              =   3.7838883231521E-03
(PID.TID 0000.0001) %MON dynstat_vvel_del2            =   1.9580583727328E-07
(PID.TID 0000.0001) %MON dynstat_wvel_max             =   2.9327607086124E-05
(PID.TID 0000.0001) %MON dynstat_wvel_min             =  -1.1428057079333E-05
(PID.TID 0000.0001) %MON dynstat_wvel_mean            =   1.6162115571426E-07
(PID.TID 0000.0001) %MON dynstat_wvel_sd              =   1.3013130949020E-06
(PID.TID 0000.0001) %MON dynstat_wvel_del2            =   8.4441214688097E-10
(PID.TID 0000.0001) %MON dynstat_theta_max            =   1.6579353917477E+01
(PID.TID 0000.0001) %MON dynstat_theta_min            =   4.1845919837803E+00
(PID.TID 0000.0001) %MON dynstat_theta_mean           =   7.5988688825455E+00
(PID.TID 0000.0001) %MON dynstat_theta_sd             =   3.5908927881533E+00
(PID.TID 0000.0001) %MON dynstat_theta_del2           =   3.0415597795988E-08
(PID.TID 0000.0001) %MON dynstat_salt_max             =   3.4476100337340E+01
(PID.TID 0000.0001) %MON dynstat_salt_min             =   3.3629999999996E+01
(PID.TID 0000.0001) %MON dynstat_salt_mean            =   3.4188927676592E+01
(PID.TID 0000.0001) %MON dynstat_salt_sd              =   2.7007223442354E-01
(PID.TID 0000.0001) %MON dynstat_salt_del2            =   1.0660941216498E-09
(PID.TID 0000.0001) %MON trAdv_CFL_u_max              =   1.0098091085399E-03
(PID.TID 0000.0001) %MON trAdv_CFL_v_max              =   2.7027059406885E-03
(PID.TID 0000.0001) %MON trAdv_CFL_w_max              =   7.3048703776844E-04
(PID.TID 0000.0001) %MON advcfl_uvel_max              =   9.4440003599651E-04
(PID.TID 0000.0001) %MON advcfl_vvel_max              =   2.7154198056904E-03
(PID.TID 0000.0001) %MON advcfl_wvel_max              =   7.6972202038848E-04
(PID.TID 0000.0001) %MON advcfl_W_hf_max              =   8.0820812140791E-04
(PID.TID 0000.0001) %MON pe_b_mean                    =   1.7764951310475E-09
(PID.TID 0000.0001) %MON ke_max                       =   4.0654261704143E-03
(PID.TID 0000.0001) %MON ke_mean                      =   7.2583651045197E-06
(PID.TID 0000.0001) %MON ke_vol                       =   8.2635254160858E+14
(PID.TID 0000.0001) %MON vort_r_min                   =  -1.3567595443248E-05
(PID.TID 0000.0001) %MON vort_r_max                   =   5.8096736081852E-06
(PID.TID 0000.0001) %MON vort_a_mean                  =   6.9142466381008E-04
(PID.TID 0000.0001) %MON vort_a_sd                    =   1.4206648047749E-06
(PID.TID 0000.0001) %MON vort_p_mean                  =   6.9569812303954E-04
(PID.TID 0000.0001) %MON vort_p_sd                    =   9.4061577024488E-05
(PID.TID 0000.0001) %MON surfExpan_theta_mean         =   1.3176742484737E-13
(PID.TID 0000.0001) %MON surfExpan_salt_mean          =   2.9890554005342E-21
(PID.TID 0000.0001) // =======================================================
(PID.TID 0000.0001) // End MONITOR dynamic field statistics
(PID.TID 0000.0001) // =======================================================
(PID.TID 0000.0001) // =======================================================
(PID.TID 0000.0001) // Begin OBCS MONITOR field statistics
(PID.TID 0000.0001) // =======================================================
(PID.TID 0000.0001) %MON obc_S_vVel_max               =   3.8469789753101E-04
(PID.TID 0000.0001) %MON obc_S_vVel_min               =  -8.4942942822242E-02
(PID.TID 0000.0001) %MON obc_S_vVel_mean              =   1.8244795806325E-20
(PID.TID 0000.0001) %MON obc_S_vVel_sd                =   3.8075692353204E-03
(PID.TID 0000.0001) %MON obc_S_vVel_Int               =   3.0979663279140E-11
(PID.TID 0000.0001) // =======================================================
(PID.TID 0000.0001) // End OBCS MONITOR field statistics
(PID.TID 0000.0001) // =======================================================
 EXTERNAL_FIELDS_LOAD,       500 : iP,iLd,i0,i1=   25   26   25   26 ; Wght=  0.5000000000  0.5000000000
 cg2d: Sum(rhs),rhsMax =  -3.26849658449646E-13  1.01016657743841E-03
 EXTERNAL_FIELDS_LOAD,       501 : iP,iLd,i0,i1=   25   26   25   26 ; Wght=  0.4500000000  0.5500000000
 cg2d: Sum(rhs),rhsMax =   2.98427949019242E-13  9.97366343776954E-04
 EXTERNAL_FIELDS_LOAD,       502 : iP,iLd,i0,i1=   25   26   25   26 ; Wght=  0.4000000000  0.6000000000
 cg2d: Sum(rhs),rhsMax =  -1.37845290737459E-12  9.81373239386008E-04
 EXTERNAL_FIELDS_LOAD,       503 : iP,iLd,i0,i1=   25   26   25   26 ; Wght=  0.3500000000  0.6500000000
 cg2d: Sum(rhs),rhsMax =   2.84217094304040E-14  9.62315989313578E-04
 EXTERNAL_FIELDS_LOAD,       504 : iP,iLd,i0,i1=   25   26   25   26 ; Wght=  0.3000000000  0.7000000000
 cg2d: Sum(rhs),rhsMax =  -1.25055521493778E-12  9.40332032017073E-04
 EXTERNAL_FIELDS_LOAD,       505 : iP,iLd,i0,i1=   25   26   25   26 ; Wght=  0.2500000000  0.7500000000
 cg2d: Sum(rhs),rhsMax =  -1.30739863379858E-12  9.15566180075951E-04
 EXTERNAL_FIELDS_LOAD,       506 : iP,iLd,i0,i1=   25   26   25   26 ; Wght=  0.2000000000  0.8000000000
 cg2d: Sum(rhs),rhsMax =  -1.09423581307055E-12  8.89870848848106E-04
 EXTERNAL_FIELDS_LOAD,       507 : iP,iLd,i0,i1=   25   26   25   26 ; Wght=  0.1500000000  0.8500000000
 cg2d: Sum(rhs),rhsMax =  -1.13686837721616E-12  8.62024434951320E-04
 EXTERNAL_FIELDS_LOAD,       508 : iP,iLd,i0,i1=   25   26   25   26 ; Wght=  0.1000000000  0.9000000000
 cg2d: Sum(rhs),rhsMax =   2.70006239588838E-13  8.31835983789410E-04
 EXTERNAL_FIELDS_LOAD,       509 : iP,iLd,i0,i1=   25   26   25   26 ; Wght=  0.0500000000  0.9500000000
 cg2d: Sum(rhs),rhsMax =  -9.66338120633736E-13  7.99456043008587E-04
 EXTERNAL_FIELDS_LOAD,       510 : iP,iLd,i0,i1=   25   26   26   27 ; Wght=  1.0000000000  0.0000000000
 EXTERNAL_FIELDS_LOAD, it=       510 : Reading new data, i0,i1=   26   27 (prev=   25   26 )
(PID.TID 0000.0001)  MDS_READ_FIELD: opening global file: ../input/merid_halfgauss2p5hr_272x320.bin
(PID.TID 0000.0001)  MDS_READ_FIELD: opening global file: ../input/merid_halfgauss2p5hr_272x320.bin
 cg2d: Sum(rhs),rhsMax =  -2.78532752417959E-12  7.65036344188108E-04
 EXTERNAL_FIELDS_LOAD,       511 : iP,iLd,i0,i1=   26   27   26   27 ; Wght=  0.9500000000  0.0500000000
 cg2d: Sum(rhs),rhsMax =  -1.32160948851379E-12  7.29489431007389E-04
 EXTERNAL_FIELDS_LOAD,       512 : iP,iLd,i0,i1=   26   27   26   27 ; Wght=  0.9000000000  0.1000000000
 cg2d: Sum(rhs),rhsMax =  -2.61479726759717E-12  7.03825307373850E-04
 EXTERNAL_FIELDS_LOAD,       513 : iP,iLd,i0,i1=   26   27   26   27 ; Wght=  0.8500000000  0.1500000000
 cg2d: Sum(rhs),rhsMax =  -8.10018718766514E-13  6.76054227969899E-04
 EXTERNAL_FIELDS_LOAD,       514 : iP,iLd,i0,i1=   26   27   26   27 ; Wght=  0.8000000000  0.2000000000
 cg2d: Sum(rhs),rhsMax =  -3.19744231092045E-12  6.46260812526658E-04
 EXTERNAL_FIELDS_LOAD,       515 : iP,iLd,i0,i1=   26   27   26   27 ; Wght=  0.7500000000  0.2500000000
 cg2d: Sum(rhs),rhsMax =  -9.09494701772928E-13  6.14539153909888E-04
 EXTERNAL_FIELDS_LOAD,       516 : iP,iLd,i0,i1=   26   27   26   27 ; Wght=  0.7000000000  0.3000000000
 cg2d: Sum(rhs),rhsMax =   1.42108547152020E-13  5.80992180558840E-04
 EXTERNAL_FIELDS_LOAD,       517 : iP,iLd,i0,i1=   26   27   26   27 ; Wght=  0.6500000000  0.3500000000
 cg2d: Sum(rhs),rhsMax =  -2.06057393370429E-12  5.45730873186334E-04
 EXTERNAL_FIELDS_LOAD,       518 : iP,iLd,i0,i1=   26   27   26   27 ; Wght=  0.6000000000  0.4000000000
 cg2d: Sum(rhs),rhsMax =  -1.35003119794419E-12  5.08873358271988E-04
 EXTERNAL_FIELDS_LOAD,       519 : iP,iLd,i0,i1=   26   27   26   27 ; Wght=  0.5500000000  0.4500000000
 cg2d: Sum(rhs),rhsMax =  -1.10844666778576E-12  4.70543902606867E-04
(PID.TID 0000.0001)      cg2d_init_res =   3.92283633577575E+00
(PID.TID 0000.0001)      cg2d_iters(min,last) =      -1      38
(PID.TID 0000.0001)      cg2d_last_res =   6.46483421921593E-08
(PID.TID 0000.0001) // =======================================================
(PID.TID 0000.0001) // Begin MONITOR dynamic field statistics
(PID.TID 0000.0001) // =======================================================
(PID.TID 0000.0001) %MON time_tsnumber                =                   520
(PID.TID 0000.0001) %MON time_secondsf                =   3.1200000000000E+04
(PID.TID 0000.0001) %MON dynstat_eta_max              =   4.1175070186295E-04
(PID.TID 0000.0001) %MON dynstat_eta_min              =  -3.3071844538542E-04
(PID.TID 0000.0001) %MON dynstat_eta_mean             =   2.2440778564349E-19
(PID.TID 0000.0001) %MON dynstat_eta_sd               =   2.7132172089228E-04
(PID.TID 0000.0001) %MON dynstat_eta_del2             =   4.1289083359526E-08
(PID.TID 0000.0001) %MON dynstat_uvel_max             =   1.2633472413707E-02
(PID.TID 0000.0001) %MON dynstat_uvel_min             =  -6.3530233086370E-02
(PID.TID 0000.0001) %MON dynstat_uvel_mean            =   2.9573479807503E-05
(PID.TID 0000.0001) %MON dynstat_uvel_sd              =   2.4910566094227E-03
(PID.TID 0000.0001) %MON dynstat_uvel_del2            =   1.8244060966786E-07
(PID.TID 0000.0001) %MON dynstat_vvel_max             =   1.5869222452850E-02
(PID.TID 0000.0001) %MON dynstat_vvel_min             =  -7.5857924656505E-02
(PID.TID 0000.0001) %MON dynstat_vvel_mean            =  -7.0995443674439E-05
(PID.TID 0000.0001) %MON dynstat_vvel_sd              =   2.8709183212472E-03
(PID.TID 0000.0001) %MON dynstat_vvel_del2            =   1.9769329888945E-07
(PID.TID 0000.0001) %MON dynstat_wvel_max             =   2.6495449688657E-05
(PID.TID 0000.0001) %MON dynstat_wvel_min             =  -1.2511078714472E-05
(PID.TID 0000.0001) %MON dynstat_wvel_mean            =   1.4852309556846E-07
(PID.TID 0000.0001) %MON dynstat_wvel_sd              =   1.0125791134017E-06
(PID.TID 0000.0001) %MON dynstat_wvel_del2            =   8.2594172630880E-10
(PID.TID 0000.0001) %MON dynstat_theta_max            =   1.6579286598184E+01
(PID.TID 0000.0001) %MON dynstat_theta_min            =   4.1845907401889E+00
(PID.TID 0000.0001) %MON dynstat_theta_mean           =   7.5988654306682E+00
(PID.TID 0000.0001) %MON dynstat_theta_sd             =   3.5908877949394E+00
(PID.TID 0000.0001) %MON dynstat_theta_del2           =   3.5919291101569E-08
(PID.TID 0000.0001) %MON dynstat_salt_max             =   3.4476100464098E+01
(PID.TID 0000.0001) %MON dynstat_salt_min             =   3.3629999999996E+01
(PID.TID 0000.0001) %MON dynstat_salt_mean            =   3.4188927887449E+01
(PID.TID 0000.0001) %MON dynstat_salt_sd              =   2.7007200073490E-01
(PID.TID 0000.0001) %MON dynstat_salt_del2            =   1.4322420308782E-09
(PID.TID 0000.0001) %MON trAdv_CFL_u_max              =   1.8254639174528E-03
(PID.TID 0000.0001) %MON trAdv_CFL_v_max              =   2.3195874937635E-03
(PID.TID 0000.0001) %MON trAdv_CFL_w_max              =   7.0759258123966E-04
(PID.TID 0000.0001) %MON advcfl_uvel_max              =   1.9019121314619E-03
(PID.TID 0000.0001) %MON advcfl_vvel_max              =   2.2650918081966E-03
(PID.TID 0000.0001) %MON advcfl_wvel_max              =   7.3085601742709E-04
(PID.TID 0000.0001) %MON advcfl_W_hf_max              =   7.6739881829845E-04
(PID.TID 0000.0001) %MON pe_b_mean                    =   3.7719707401116E-10
(PID.TID 0000.0001) %MON ke_max                       =   5.0753886367768E-03
(PID.TID 0000.0001) %MON ke_mean                      =   7.2147854527114E-06
(PID.TID 0000.0001) %MON ke_vol                       =   8.2635254160858E+14
(PID.TID 0000.0001) %MON vort_r_min                   =  -1.0458784663757E-05
(PID.TID 0000.0001) %MON vort_r_max                   =   2.1763396005471E-05
(PID.TID 0000.0001) %MON vort_a_mean                  =   6.9142466381008E-04
(PID.TID 0000.0001) %MON vort_a_sd                    =   1.4214192969209E-06
(PID.TID 0000.0001) %MON vort_p_mean                  =   6.9569812303954E-04
(PID.TID 0000.0001) %MON vort_p_sd                    =   9.4066520175574E-05
(PID.TID 0000.0001) %MON surfExpan_theta_mean         =   8.7432784445901E-13
(PID.TID 0000.0001) %MON surfExpan_salt_mean          =   7.7544757659259E-21
(PID.TID 0000.0001) // =======================================================
(PID.TID 0000.0001) // End MONITOR dynamic field statistics
(PID.TID 0000.0001) // =======================================================
(PID.TID 0000.0001) // =======================================================
(PID.TID 0000.0001) // Begin OBCS MONITOR field statistics
(PID.TID 0000.0001) // =======================================================
(PID.TID 0000.0001) %MON obc_S_vVel_max               =   3.7216973099404E-04
(PID.TID 0000.0001) %MON obc_S_vVel_min               =  -7.5857924656505E-02
(PID.TID 0000.0001) %MON obc_S_vVel_mean              =   2.5175725919632E-19
(PID.TID 0000.0001) %MON obc_S_vVel_sd                =   3.4009825751469E-03
(PID.TID 0000.0001) %MON obc_S_vVel_Int               =   4.2748382611535E-10
(PID.TID 0000.0001) // =======================================================
(PID.TID 0000.0001) // End OBCS MONITOR field statistics
(PID.TID 0000.0001) // =======================================================
 EXTERNAL_FIELDS_LOAD,       520 : iP,iLd,i0,i1=   26   27   26   27 ; Wght=  0.5000000000  0.5000000000
 cg2d: Sum(rhs),rhsMax =  -2.30215846386272E-12  4.30871835688198E-04
 EXTERNAL_FIELDS_LOAD,       521 : iP,iLd,i0,i1=   26   27   26   27 ; Wght=  0.4500000000  0.5500000000
 cg2d: Sum(rhs),rhsMax =  -1.25055521493778E-12  3.89990427878150E-04
 EXTERNAL_FIELDS_LOAD,       522 : iP,iLd,i0,i1=   26   27   26   27 ; Wght=  0.4000000000  0.6000000000
 cg2d: Sum(rhs),rhsMax =  -2.77111666946439E-12  3.48035753292428E-04
 EXTERNAL_FIELDS_LOAD,       523 : iP,iLd,i0,i1=   26   27   26   27 ; Wght=  0.3500000000  0.6500000000
 cg2d: Sum(rhs),rhsMax =  -2.28794760914752E-12  3.05145565549496E-04
 EXTERNAL_FIELDS_LOAD,       524 : iP,iLd,i0,i1=   26   27   26   27 ; Wght=  0.3000000000  0.7000000000
 cg2d: Sum(rhs),rhsMax =  -2.45847786572995E-12  2.61458213975562E-04
 EXTERNAL_FIELDS_LOAD,       525 : iP,iLd,i0,i1=   26   27   26   27 ; Wght=  0.2500000000  0.7500000000
 cg2d: Sum(rhs),rhsMax =  -4.06430444854777E-12  2.17111626091579E-04
 EXTERNAL_FIELDS_LOAD,       526 : iP,iLd,i0,i1=   26   27   26   27 ; Wght=  0.2000000000  0.8000000000
 cg2d: Sum(rhs),rhsMax =  -5.28643795405515E-12  1.72242379698038E-04
 EXTERNAL_FIELDS_LOAD,       527 : iP,iLd,i0,i1=   26   27   26   27 ; Wght=  0.1500000000  0.8500000000
 cg2d: Sum(rhs),rhsMax =  -6.62225829728413E-12  1.26984885216566E-04
 EXTERNAL_FIELDS_LOAD,       528 : iP,iLd,i0,i1=   26   27   26   27 ; Wght=  0.1000000000  0.9000000000
 cg2d: Sum(rhs),rhsMax =  -9.45021838560933E-12  1.02433714367473E-04
 EXTERNAL_FIELDS_LOAD,       529 : iP,iLd,i0,i1=   26   27   26   27 ; Wght=  0.0500000000  0.9500000000
 cg2d: Sum(rhs),rhsMax =  -5.67546010188380E-12  1.48534432770002E-04
 EXTERNAL_FIELDS_LOAD,       530 : iP,iLd,i0,i1=   26   27   27   28 ; Wght=  1.0000000000  0.0000000000
 EXTERNAL_FIELDS_LOAD, it=       530 : Reading new data, i0,i1=   27   28 (prev=   26   27 )
(PID.TID 0000.0001)  MDS_READ_FIELD: opening global file: ../input/merid_halfgauss2p5hr_272x320.bin
(PID.TID 0000.0001)  MDS_READ_FIELD: opening global file: ../input/merid_halfgauss2p5hr_272x320.bin
 cg2d: Sum(rhs),rhsMax =  -3.56692453351570E-12  1.94162776489126E-04
 EXTERNAL_FIELDS_LOAD,       531 : iP,iLd,i0,i1=   27   28   27   28 ; Wght=  0.9500000000  0.0500000000
 cg2d: Sum(rhs),rhsMax =  -4.36273239756702E-12  2.39233056748138E-04
 EXTERNAL_FIELDS_LOAD,       532 : iP,iLd,i0,i1=   27   28   27   28 ; Wght=  0.9000000000  0.1000000000
 cg2d: Sum(rhs),rhsMax =  -2.37321273743873E-12  2.83663037262795E-04
 EXTERNAL_FIELDS_LOAD,       533 : iP,iLd,i0,i1=   27   28   27   28 ; Wght=  0.8500000000  0.1500000000
 cg2d: Sum(rhs),rhsMax =  -3.21165316563565E-12  3.27367094409803E-04
 EXTERNAL_FIELDS_LOAD,       534 : iP,iLd,i0,i1=   27   28   27   28 ; Wght=  0.8000000000  0.2000000000
 cg2d: Sum(rhs),rhsMax =  -1.67688085639384E-12  3.70260145092184E-04
 EXTERNAL_FIELDS_LOAD,       535 : iP,iLd,i0,i1=   27   28   27   28 ; Wght=  0.7500000000  0.2500000000
 cg2d: Sum(rhs),rhsMax =  -2.99849034490762E-12  4.12254291011378E-04
 EXTERNAL_FIELDS_LOAD,       536 : iP,iLd,i0,i1=   27   28   27   28 ; Wght=  0.7000000000  0.3000000000
 cg2d: Sum(rhs),rhsMax =  -1.69109171110904E-12  4.53304848470424E-04
 EXTERNAL_FIELDS_LOAD,       537 : iP,iLd,i0,i1=   27   28   27   28 ; Wght=  0.6500000000  0.3500000000
 cg2d: Sum(rhs),rhsMax =  -8.10018718766514E-13  4.93292537525517E-04
 EXTERNAL_FIELDS_LOAD,       538 : iP,iLd,i0,i1=   27   28   27   28 ; Wght=  0.6000000000  0.4000000000
 cg2d: Sum(rhs),rhsMax =  -2.87059265247080E-12  5.32107073349838E-04
 EXTERNAL_FIELDS_LOAD,       539 : iP,iLd,i0,i1=   27   28   27   28 ; Wght=  0.5500000000  0.4500000000
 cg2d: Sum(rhs),rhsMax =  -1.29318777908338E-12  5.69652317139668E-04
(PID.TID 0000.0001)      cg2d_init_res =   2.97565139710896E+00
(PID.TID 0000.0001)      cg2d_iters(min,last) =      -1      37
(PID.TID 0000.0001)      cg2d_last_res =   9.03448288878861E-08
(PID.TID 0000.0001) // =======================================================
(PID.TID 0000.0001) // Begin MONITOR dynamic field statistics
(PID.TID 0000.0001) // =======================================================
(PID.TID 0000.0001) %MON time_tsnumber                =                   540
(PID.TID 0000.0001) %MON time_secondsf                =   3.2400000000000E+04
(PID.TID 0000.0001) %MON dynstat_eta_max              =   4.8401095827502E-04
(PID.TID 0000.0001) %MON dynstat_eta_min              =  -4.3797332979440E-04
(PID.TID 0000.0001) %MON dynstat_eta_mean             =   7.4442967352889E-20
(PID.TID 0000.0001) %MON dynstat_eta_sd               =   3.3626007374978E-04
(PID.TID 0000.0001) %MON dynstat_eta_del2             =   1.1654398224258E-08
(PID.TID 0000.0001) %MON dynstat_uvel_max             =   1.5229874662045E-02
(PID.TID 0000.0001) %MON dynstat_uvel_min             =  -9.0751821389756E-02
(PID.TID 0000.0001) %MON dynstat_uvel_mean            =  -3.3606395970522E-05
(PID.TID 0000.0001) %MON dynstat_uvel_sd              =   3.7801453264238E-03
(PID.TID 0000.0001) %MON dynstat_uvel_del2            =   1.8858377668532E-07
(PID.TID 0000.0001) %MON dynstat_vvel_max             =   8.6244231471339E-03
(PID.TID 0000.0001) %MON dynstat_vvel_min             =  -2.6663009760958E-02
(PID.TID 0000.0001) %MON dynstat_vvel_mean            =  -6.5724843770907E-05
(PID.TID 0000.0001) %MON dynstat_vvel_sd              =   2.1734922644317E-04
(PID.TID 0000.0001) %MON dynstat_vvel_del2            =   1.8167715719278E-07
(PID.TID 0000.0001) %MON dynstat_wvel_max             =   1.3514761907843E-05
(PID.TID 0000.0001) %MON dynstat_wvel_min             =  -1.9344717736793E-05
(PID.TID 0000.0001) %MON dynstat_wvel_mean            =   3.9546169980475E-08
(PID.TID 0000.0001) %MON dynstat_wvel_sd              =   7.2847449099958E-07
(PID.TID 0000.0001) %MON dynstat_wvel_del2            =   7.9792883777413E-10
(PID.TID 0000.0001) %MON dynstat_theta_max            =   1.6579249931325E+01
(PID.TID 0000.0001) %MON dynstat_theta_min            =   4.1845896646000E+00
(PID.TID 0000.0001) %MON dynstat_theta_mean           =   7.5988633965465E+00
(PID.TID 0000.0001) %MON dynstat_theta_sd             =   3.5908843923075E+00
(PID.TID 0000.0001) %MON dynstat_theta_del2           =   3.5011927243474E-08
(PID.TID 0000.0001) %MON dynstat_salt_max             =   3.4476100573727E+01
(PID.TID 0000.0001) %MON dynstat_salt_min             =   3.3629999999996E+01
(PID.TID 0000.0001) %MON dynstat_salt_mean            =   3.4188928013338E+01
(PID.TID 0000.0001) %MON dynstat_salt_sd              =   2.7007183918337E-01
(PID.TID 0000.0001) %MON dynstat_salt_del2            =   1.3966238458395E-09
(PID.TID 0000.0001) %MON trAdv_CFL_u_max              =   2.7226133594635E-03
(PID.TID 0000.0001) %MON trAdv_CFL_v_max              =   8.7123661688117E-04
(PID.TID 0000.0001) %MON trAdv_CFL_w_max              =   4.9017672384185E-04
(PID.TID 0000.0001) %MON advcfl_uvel_max              =   2.7168490545187E-03
(PID.TID 0000.0001) %MON advcfl_vvel_max              =   7.9614839537050E-04
(PID.TID 0000.0001) %MON advcfl_wvel_max              =   4.7313352318575E-04
(PID.TID 0000.0001) %MON advcfl_W_hf_max              =   4.9463959242146E-04
(PID.TID 0000.0001) %MON pe_b_mean                    =   5.7936172028681E-10
(PID.TID 0000.0001) %MON ke_max                       =   6.1951867619066E-03
(PID.TID 0000.0001) %MON ke_mean                      =   7.1704414992436E-06
(PID.TID 0000.0001) %MON ke_vol                       =   8.2635254160858E+14
(PID.TID 0000.0001) %MON vort_r_min                   =  -1.2474476737466E-05
(PID.TID 0000.0001) %MON vort_r_max                   =   4.2708119269503E-05
(PID.TID 0000.0001) %MON vort_a_mean                  =   6.9142466381008E-04
(PID.TID 0000.0001) %MON vort_a_sd                    =   1.4256841870650E-06
(PID.TID 0000.0001) %MON vort_p_mean                  =   6.9569812303954E-04
(PID.TID 0000.0001) %MON vort_p_sd                    =   9.4070519183764E-05
(PID.TID 0000.0001) %MON surfExpan_theta_mean         =   3.0108008794234E-13
(PID.TID 0000.0001) %MON surfExpan_salt_mean          =  -1.3486044810306E-21
(PID.TID 0000.0001) // =======================================================
(PID.TID 0000.0001) // End MONITOR dynamic field statistics
(PID.TID 0000.0001) // =======================================================
(PID.TID 0000.0001) // =======================================================
(PID.TID 0000.0001) // Begin OBCS MONITOR field statistics
(PID.TID 0000.0001) // =======================================================
(PID.TID 0000.0001) %MON obc_S_vVel_max               =   1.2523893166871E-04
(PID.TID 0000.0001) %MON obc_S_vVel_min               =  -1.7721511885864E-02
(PID.TID 0000.0001) %MON obc_S_vVel_mean              =   2.8752291739739E-20
(PID.TID 0000.0001) %MON obc_S_vVel_sd                =   7.9522067988490E-04
(PID.TID 0000.0001) %MON obc_S_vVel_Int               =   4.8821391374076E-11
(PID.TID 0000.0001) // =======================================================
(PID.TID 0000.0001) // End OBCS MONITOR field statistics
(PID.TID 0000.0001) // =======================================================
 EXTERNAL_FIELDS_LOAD,       540 : iP,iLd,i0,i1=   27   28   27   28 ; Wght=  0.5000000000  0.5000000000
 cg2d: Sum(rhs),rhsMax =  -1.70530256582424E-12  6.05830525412690E-04
 EXTERNAL_FIELDS_LOAD,       541 : iP,iLd,i0,i1=   27   28   27   28 ; Wght=  0.4500000000  0.5500000000
 cg2d: Sum(rhs),rhsMax =  -1.90425453183707E-12  6.40541679132912E-04
 EXTERNAL_FIELDS_LOAD,       542 : iP,iLd,i0,i1=   27   28   27   28 ; Wght=  0.4000000000  0.6000000000
 cg2d: Sum(rhs),rhsMax =  -5.96855898038484E-13  6.73684704635735E-04
 EXTERNAL_FIELDS_LOAD,       543 : iP,iLd,i0,i1=   27   28   27   28 ; Wght=  0.3500000000  0.6500000000
 cg2d: Sum(rhs),rhsMax =  -1.97530880541308E-12  7.05157069537291E-04
 EXTERNAL_FIELDS_LOAD,       544 : iP,iLd,i0,i1=   27   28   27   28 ; Wght=  0.3000000000  0.7000000000
 cg2d: Sum(rhs),rhsMax =  -9.09494701772928E-13  7.34856524735822E-04
 EXTERNAL_FIELDS_LOAD,       545 : iP,iLd,i0,i1=   27   28   27   28 ; Wght=  0.2500000000  0.7500000000
 cg2d: Sum(rhs),rhsMax =   1.19371179607697E-12  7.62701401402450E-04
 EXTERNAL_FIELDS_LOAD,       546 : iP,iLd,i0,i1=   27   28   27   28 ; Wght=  0.2000000000  0.8000000000
 cg2d: Sum(rhs),rhsMax =  -1.49213974509621E-12  7.95533258320076E-04
 EXTERNAL_FIELDS_LOAD,       547 : iP,iLd,i0,i1=   27   28   27   28 ; Wght=  0.1500000000  0.8500000000
 cg2d: Sum(rhs),rhsMax =  -1.26476606965298E-12  8.26391962789426E-04
 EXTERNAL_FIELDS_LOAD,       548 : iP,iLd,i0,i1=   27   28   27   28 ; Wght=  0.1000000000  0.9000000000
 cg2d: Sum(rhs),rhsMax =   4.26325641456060E-14  8.55098442217682E-04
 EXTERNAL_FIELDS_LOAD,       549 : iP,iLd,i0,i1=   27   28   27   28 ; Wght=  0.0500000000  0.9500000000
 cg2d: Sum(rhs),rhsMax =  -1.94688709598267E-12  8.81520203965424E-04
 EXTERNAL_FIELDS_LOAD,       550 : iP,iLd,i0,i1=   27   28   28   29 ; Wght=  1.0000000000  0.0000000000
 EXTERNAL_FIELDS_LOAD, it=       550 : Reading new data, i0,i1=   28   29 (prev=   27   28 )
(PID.TID 0000.0001)  MDS_READ_FIELD: opening global file: ../input/merid_halfgauss2p5hr_272x320.bin
(PID.TID 0000.0001)  MDS_READ_FIELD: opening global file: ../input/merid_halfgauss2p5hr_272x320.bin
 cg2d: Sum(rhs),rhsMax =  -3.83693077310454E-13  9.05528580088238E-04
 EXTERNAL_FIELDS_LOAD,       551 : iP,iLd,i0,i1=   28   29   28   29 ; Wght=  0.9500000000  0.0500000000
 cg2d: Sum(rhs),rhsMax =  -3.08375547319883E-12  9.26999597556704E-04
 EXTERNAL_FIELDS_LOAD,       552 : iP,iLd,i0,i1=   28   29   28   29 ; Wght=  0.9000000000  0.1000000000
 cg2d: Sum(rhs),rhsMax =  -1.90425453183707E-12  9.45814859826296E-04
 EXTERNAL_FIELDS_LOAD,       553 : iP,iLd,i0,i1=   28   29   28   29 ; Wght=  0.8500000000  0.1500000000
 cg2d: Sum(rhs),rhsMax =  -8.81072992342524E-13  9.61862437965464E-04
 EXTERNAL_FIELDS_LOAD,       554 : iP,iLd,i0,i1=   28   29   28   29 ; Wght=  0.8000000000  0.2000000000
 cg2d: Sum(rhs),rhsMax =  -9.66338120633736E-13  9.75037766560062E-04
 EXTERNAL_FIELDS_LOAD,       555 : iP,iLd,i0,i1=   28   29   28   29 ; Wght=  0.7500000000  0.2500000000
 cg2d: Sum(rhs),rhsMax =   1.13686837721616E-13  9.85244526330027E-04
 EXTERNAL_FIELDS_LOAD,       556 : iP,iLd,i0,i1=   28   29   28   29 ; Wght=  0.7000000000  0.3000000000
 cg2d: Sum(rhs),rhsMax =  -6.96331881044898E-13  9.92395514621856E-04
 EXTERNAL_FIELDS_LOAD,       557 : iP,iLd,i0,i1=   28   29   28   29 ; Wght=  0.6500000000  0.3500000000
 cg2d: Sum(rhs),rhsMax =  -1.42108547152020E-13  9.96413497672844E-04
 EXTERNAL_FIELDS_LOAD,       558 : iP,iLd,i0,i1=   28   29   28   29 ; Wght=  0.6000000000  0.4000000000
 cg2d: Sum(rhs),rhsMax =  -1.17950094136177E-12  9.97232027038947E-04
 EXTERNAL_FIELDS_LOAD,       559 : iP,iLd,i0,i1=   28   29   28   29 ; Wght=  0.5500000000  0.4500000000
 cg2d: Sum(rhs),rhsMax =  -1.06581410364015E-12  9.94796211806300E-04
(PID.TID 0000.0001)      cg2d_init_res =   3.50406843894435E-01
(PID.TID 0000.0001)      cg2d_iters(min,last) =      -1      31
(PID.TID 0000.0001)      cg2d_last_res =   7.20456185409320E-08
(PID.TID 0000.0001) // =======================================================
(PID.TID 0000.0001) // Begin MONITOR dynamic field statistics
(PID.TID 0000.0001) // =======================================================
(PID.TID 0000.0001) %MON time_tsnumber                =                   560
(PID.TID 0000.0001) %MON time_secondsf                =   3.3600000000000E+04
(PID.TID 0000.0001) %MON dynstat_eta_max              =   7.8400026203532E-04
(PID.TID 0000.0001) %MON dynstat_eta_min              =  -8.6395207536566E-04
(PID.TID 0000.0001) %MON dynstat_eta_mean             =   3.1503400676875E-19
(PID.TID 0000.0001) %MON dynstat_eta_sd               =   5.5690629891191E-04
(PID.TID 0000.0001) %MON dynstat_eta_del2             =   2.9875483307216E-08
(PID.TID 0000.0001) %MON dynstat_uvel_max             =   1.4513399305022E-02
(PID.TID 0000.0001) %MON dynstat_uvel_min             =  -7.0004550200668E-02
(PID.TID 0000.0001) %MON dynstat_uvel_mean            =  -5.8966790551205E-05
(PID.TID 0000.0001) %MON dynstat_uvel_sd              =   2.6168067796853E-03
(PID.TID 0000.0001) %MON dynstat_uvel_del2            =   1.9145650274908E-07
(PID.TID 0000.0001) %MON dynstat_vvel_max             =   6.9152792170310E-02
(PID.TID 0000.0001) %MON dynstat_vvel_min             =  -1.1630883008661E-02
(PID.TID 0000.0001) %MON dynstat_vvel_mean            =   1.1094163038143E-05
(PID.TID 0000.0001) %MON dynstat_vvel_sd              =   2.7228264065930E-03
(PID.TID 0000.0001) %MON dynstat_vvel_del2            =   1.6922288275714E-07
(PID.TID 0000.0001) %MON dynstat_wvel_max             =   8.5726918394822E-06
(PID.TID 0000.0001) %MON dynstat_wvel_min             =  -2.4259105029815E-05
(PID.TID 0000.0001) %MON dynstat_wvel_mean            =  -9.4569753498629E-08
(PID.TID 0000.0001) %MON dynstat_wvel_sd              =   1.0503688462114E-06
(PID.TID 0000.0001) %MON dynstat_wvel_del2            =   7.6076710184438E-10
(PID.TID 0000.0001) %MON dynstat_theta_max            =   1.6579243109588E+01
(PID.TID 0000.0001) %MON dynstat_theta_min            =   4.1845918914924E+00
(PID.TID 0000.0001) %MON dynstat_theta_mean           =   7.5988640876853E+00
(PID.TID 0000.0001) %MON dynstat_theta_sd             =   3.5908839572720E+00
(PID.TID 0000.0001) %MON dynstat_theta_del2           =   3.0406668912382E-08
(PID.TID 0000.0001) %MON dynstat_salt_max             =   3.4476100346752E+01
(PID.TID 0000.0001) %MON dynstat_salt_min             =   3.3629999999996E+01
(PID.TID 0000.0001) %MON dynstat_salt_mean            =   3.4188927973331E+01
(PID.TID 0000.0001) %MON dynstat_salt_sd              =   2.7007181288037E-01
(PID.TID 0000.0001) %MON dynstat_salt_del2            =   1.0564759940956E-09
(PID.TID 0000.0001) %MON trAdv_CFL_u_max              =   2.2268009918632E-03
(PID.TID 0000.0001) %MON trAdv_CFL_v_max              =   1.9949238889730E-03
(PID.TID 0000.0001) %MON trAdv_CFL_w_max              =   6.4578734125441E-04
(PID.TID 0000.0001) %MON advcfl_uvel_max              =   2.1621297822313E-03
(PID.TID 0000.0001) %MON advcfl_vvel_max              =   2.0648788345868E-03
(PID.TID 0000.0001) %MON advcfl_wvel_max              =   6.2301180028212E-04
(PID.TID 0000.0001) %MON advcfl_W_hf_max              =   6.5133051847676E-04
(PID.TID 0000.0001) %MON pe_b_mean                    =   1.5891447200266E-09
(PID.TID 0000.0001) %MON ke_max                       =   5.2696299905363E-03
(PID.TID 0000.0001) %MON ke_mean                      =   7.1270695775089E-06
(PID.TID 0000.0001) %MON ke_vol                       =   8.2635254160858E+14
(PID.TID 0000.0001) %MON vort_r_min                   =  -1.1614977712114E-05
(PID.TID 0000.0001) %MON vort_r_max                   =   3.5942888926072E-05
(PID.TID 0000.0001) %MON vort_a_mean                  =   6.9142466381008E-04
(PID.TID 0000.0001) %MON vort_a_sd                    =   1.4236361543163E-06
(PID.TID 0000.0001) %MON vort_p_mean                  =   6.9569812303954E-04
(PID.TID 0000.0001) %MON vort_p_sd                    =   9.4070661630237E-05
(PID.TID 0000.0001) %MON surfExpan_theta_mean         =   1.0068361186305E-13
(PID.TID 0000.0001) %MON surfExpan_salt_mean          =   3.2429723379783E-21
(PID.TID 0000.0001) // =======================================================
(PID.TID 0000.0001) // End MONITOR dynamic field statistics
(PID.TID 0000.0001) // =======================================================
(PID.TID 0000.0001) // =======================================================
(PID.TID 0000.0001) // Begin OBCS MONITOR field statistics
(PID.TID 0000.0001) // =======================================================
(PID.TID 0000.0001) %MON obc_S_vVel_max               =   5.1306131456936E-02
(PID.TID 0000.0001) %MON obc_S_vVel_min               =  -2.1952125098018E-04
(PID.TID 0000.0001) %MON obc_S_vVel_mean              =  -6.8759028048540E-20
(PID.TID 0000.0001) %MON obc_S_vVel_sd                =   2.3001390494255E-03
(PID.TID 0000.0001) %MON obc_S_vVel_Int               =  -1.1675282962642E-10
(PID.TID 0000.0001) // =======================================================
(PID.TID 0000.0001) // End OBCS MONITOR field statistics
(PID.TID 0000.0001) // =======================================================
 EXTERNAL_FIELDS_LOAD,       560 : iP,iLd,i0,i1=   28   29   28   29 ; Wght=  0.5000000000  0.5000000000
 cg2d: Sum(rhs),rhsMax =  -6.53699316899292E-13  9.89063448631615E-04
 EXTERNAL_FIELDS_LOAD,       561 : iP,iLd,i0,i1=   28   29   28   29 ; Wght=  0.4500000000  0.5500000000
 cg2d: Sum(rhs),rhsMax =  -7.95807864051312E-13  9.80004099962234E-04
 EXTERNAL_FIELDS_LOAD,       562 : iP,iLd,i0,i1=   28   29   28   29 ; Wght=  0.4000000000  0.6000000000
 cg2d: Sum(rhs),rhsMax =  -1.80477854883065E-12  9.70036233110066E-04
 EXTERNAL_FIELDS_LOAD,       563 : iP,iLd,i0,i1=   28   29   28   29 ; Wght=  0.3500000000  0.6500000000
 cg2d: Sum(rhs),rhsMax =  -1.42108547152020E-12  9.57687161566733E-04
 EXTERNAL_FIELDS_LOAD,       564 : iP,iLd,i0,i1=   28   29   28   29 ; Wght=  0.3000000000  0.7000000000
 cg2d: Sum(rhs),rhsMax =  -6.82121026329696E-13  9.41992432052072E-04
 EXTERNAL_FIELDS_LOAD,       565 : iP,iLd,i0,i1=   28   29   28   29 ; Wght=  0.2500000000  0.7500000000
 cg2d: Sum(rhs),rhsMax =   1.17950094136177E-12  9.22969127283392E-04
 EXTERNAL_FIELDS_LOAD,       566 : iP,iLd,i0,i1=   28   29   28   29 ; Wght=  0.2000000000  0.8000000000
 cg2d: Sum(rhs),rhsMax =  -4.26325641456060E-13  9.00654514604377E-04
 EXTERNAL_FIELDS_LOAD,       567 : iP,iLd,i0,i1=   28   29   28   29 ; Wght=  0.1500000000  0.8500000000
 cg2d: Sum(rhs),rhsMax =  -1.00897068477934E-12  8.75109238577597E-04
 EXTERNAL_FIELDS_LOAD,       568 : iP,iLd,i0,i1=   28   29   28   29 ; Wght=  0.1000000000  0.9000000000
 cg2d: Sum(rhs),rhsMax =   4.26325641456060E-13  8.46388164081017E-04
 EXTERNAL_FIELDS_LOAD,       569 : iP,iLd,i0,i1=   28   29   28   29 ; Wght=  0.0500000000  0.9500000000
 cg2d: Sum(rhs),rhsMax =  -2.06057393370429E-12  8.14563637439608E-04
 EXTERNAL_FIELDS_LOAD,       570 : iP,iLd,i0,i1=   28   29   29   30 ; Wght=  1.0000000000  0.0000000000
 EXTERNAL_FIELDS_LOAD, it=       570 : Reading new data, i0,i1=   29   30 (prev=   28   29 )
(PID.TID 0000.0001)  MDS_READ_FIELD: opening global file: ../input/merid_halfgauss2p5hr_272x320.bin
(PID.TID 0000.0001)  MDS_READ_FIELD: opening global file: ../input/merid_halfgauss2p5hr_272x320.bin
 cg2d: Sum(rhs),rhsMax =  -6.53699316899292E-13  7.79731081233952E-04
 EXTERNAL_FIELDS_LOAD,       571 : iP,iLd,i0,i1=   29   30   29   30 ; Wght=  0.9500000000  0.0500000000
 cg2d: Sum(rhs),rhsMax =  -1.94688709598267E-12  7.42001474329822E-04
 EXTERNAL_FIELDS_LOAD,       572 : iP,iLd,i0,i1=   29   30   29   30 ; Wght=  0.9000000000  0.1000000000
 cg2d: Sum(rhs),rhsMax =  -8.95283847057726E-13  7.01501029087408E-04
 EXTERNAL_FIELDS_LOAD,       573 : iP,iLd,i0,i1=   29   30   29   30 ; Wght=  0.8500000000  0.1500000000
 cg2d: Sum(rhs),rhsMax =  -8.66862137627322E-13  6.58370744171172E-04
 EXTERNAL_FIELDS_LOAD,       574 : iP,iLd,i0,i1=   29   30   29   30 ; Wght=  0.8000000000  0.2000000000
 cg2d: Sum(rhs),rhsMax =  -1.06581410364015E-12  6.12765833281057E-04
 EXTERNAL_FIELDS_LOAD,       575 : iP,iLd,i0,i1=   29   30   29   30 ; Wght=  0.7500000000  0.2500000000
 cg2d: Sum(rhs),rhsMax =  -2.98427949019242E-12  5.64855034227187E-04
 EXTERNAL_FIELDS_LOAD,       576 : iP,iLd,i0,i1=   29   30   29   30 ; Wght=  0.7000000000  0.3000000000
 cg2d: Sum(rhs),rhsMax =  -5.25801624462474E-13  5.14819798752341E-04
 EXTERNAL_FIELDS_LOAD,       577 : iP,iLd,i0,i1=   29   30   29   30 ; Wght=  0.6500000000  0.3500000000
 cg2d: Sum(rhs),rhsMax =  -3.62376795237651E-12  4.62853369805199E-04
 EXTERNAL_FIELDS_LOAD,       578 : iP,iLd,i0,i1=   29   30   29   30 ; Wght=  0.6000000000  0.4000000000
 cg2d: Sum(rhs),rhsMax =  -1.96109795069788E-12  4.09159752653232E-04
 EXTERNAL_FIELDS_LOAD,       579 : iP,iLd,i0,i1=   29   30   29   30 ; Wght=  0.5500000000  0.4500000000
 cg2d: Sum(rhs),rhsMax =  -3.25428572978126E-12  3.53952585805734E-04
(PID.TID 0000.0001)      cg2d_init_res =   5.41742196466594E+00
(PID.TID 0000.0001)      cg2d_iters(min,last) =      -1      39
(PID.TID 0000.0001)      cg2d_last_res =   6.66370466474082E-08
(PID.TID 0000.0001) // =======================================================
(PID.TID 0000.0001) // Begin MONITOR dynamic field statistics
(PID.TID 0000.0001) // =======================================================
(PID.TID 0000.0001) %MON time_tsnumber                =                   580
(PID.TID 0000.0001) %MON time_secondsf                =   3.4800000000000E+04
(PID.TID 0000.0001) %MON dynstat_eta_max              =   2.1801677501780E-04
(PID.TID 0000.0001) %MON dynstat_eta_min              =  -2.8461920558928E-04
(PID.TID 0000.0001) %MON dynstat_eta_mean             =   1.4780705112095E-19
(PID.TID 0000.0001) %MON dynstat_eta_sd               =   1.6475631938469E-04
(PID.TID 0000.0001) %MON dynstat_eta_del2             =   1.7408817712469E-08
(PID.TID 0000.0001) %MON dynstat_uvel_max             =   1.5601834548303E-02
(PID.TID 0000.0001) %MON dynstat_uvel_min             =  -2.0842345876541E-02
(PID.TID 0000.0001) %MON dynstat_uvel_mean            =  -1.8766081048828E-05
(PID.TID 0000.0001) %MON dynstat_uvel_sd              =   3.1284403513450E-04
(PID.TID 0000.0001) %MON dynstat_uvel_del2            =   1.7110396000718E-07
(PID.TID 0000.0001) %MON dynstat_vvel_max             =   9.2639132201273E-02
(PID.TID 0000.0001) %MON dynstat_vvel_min             =  -1.3938722794320E-02
(PID.TID 0000.0001) %MON dynstat_vvel_mean            =   7.5139393058057E-05
(PID.TID 0000.0001) %MON dynstat_vvel_sd              =   3.7554558039344E-03
(PID.TID 0000.0001) %MON dynstat_vvel_del2            =   1.7523824552011E-07
(PID.TID 0000.0001) %MON dynstat_wvel_max             =   9.9708352044113E-06
(PID.TID 0000.0001) %MON dynstat_wvel_min             =  -2.6538149516030E-05
(PID.TID 0000.0001) %MON dynstat_wvel_mean            =  -1.6622585166952E-07
(PID.TID 0000.0001) %MON dynstat_wvel_sd              =   1.1659614333532E-06
(PID.TID 0000.0001) %MON dynstat_wvel_del2            =   7.1499950814986E-10
(PID.TID 0000.0001) %MON dynstat_theta_max            =   1.6579217408330E+01
(PID.TID 0000.0001) %MON dynstat_theta_min            =   4.1845948614776E+00
(PID.TID 0000.0001) %MON dynstat_theta_mean           =   7.5988670341772E+00
(PID.TID 0000.0001) %MON dynstat_theta_sd             =   3.5908859356346E+00
(PID.TID 0000.0001) %MON dynstat_theta_del2           =   3.2569978699499E-08
(PID.TID 0000.0001) %MON dynstat_salt_max             =   3.4476100044033E+01
(PID.TID 0000.0001) %MON dynstat_salt_min             =   3.3629999999996E+01
(PID.TID 0000.0001) %MON dynstat_salt_mean            =   3.4188927794803E+01
(PID.TID 0000.0001) %MON dynstat_salt_sd              =   2.7007189690874E-01
(PID.TID 0000.0001) %MON dynstat_salt_del2            =   1.1376529071591E-09
(PID.TID 0000.0001) %MON trAdv_CFL_u_max              =   6.8554340388453E-04
(PID.TID 0000.0001) %MON trAdv_CFL_v_max              =   2.7671341511975E-03
(PID.TID 0000.0001) %MON trAdv_CFL_w_max              =   7.5738234708769E-04
(PID.TID 0000.0001) %MON advcfl_uvel_max              =   6.2395730126517E-04
(PID.TID 0000.0001) %MON advcfl_vvel_max              =   2.7661729531583E-03
(PID.TID 0000.0001) %MON advcfl_wvel_max              =   7.0140044950792E-04
(PID.TID 0000.0001) %MON advcfl_W_hf_max              =   7.3647047198331E-04
(PID.TID 0000.0001) %MON pe_b_mean                    =   1.3908597905860E-10
(PID.TID 0000.0001) %MON ke_max                       =   4.1285358401154E-03
(PID.TID 0000.0001) %MON ke_mean                      =   7.0880302841005E-06
(PID.TID 0000.0001) %MON ke_vol                       =   8.2635254160858E+14
(PID.TID 0000.0001) %MON vort_r_min                   =  -5.4211617231097E-06
(PID.TID 0000.0001) %MON vort_r_max                   =   7.6583488761313E-06
(PID.TID 0000.0001) %MON vort_a_mean                  =   6.9142466381008E-04
(PID.TID 0000.0001) %MON vort_a_sd                    =   1.4194970309817E-06
(PID.TID 0000.0001) %MON vort_p_mean                  =   6.9569812303954E-04
(PID.TID 0000.0001) %MON vort_p_sd                    =   9.4067662336216E-05
(PID.TID 0000.0001) %MON surfExpan_theta_mean         =   5.0826510074599E-13
(PID.TID 0000.0001) %MON surfExpan_salt_mean          =  -8.5636384545443E-21
(PID.TID 0000.0001) // =======================================================
(PID.TID 0000.0001) // End MONITOR dynamic field statistics
(PID.TID 0000.0001) // =======================================================
(PID.TID 0000.0001) // =======================================================
(PID.TID 0000.0001) // Begin OBCS MONITOR field statistics
(PID.TID 0000.0001) // =======================================================
(PID.TID 0000.0001) %MON obc_S_vVel_max               =   8.6769787473735E-02
(PID.TID 0000.0001) %MON obc_S_vVel_min               =  -4.0477981391072E-04
(PID.TID 0000.0001) %MON obc_S_vVel_mean              =   8.3702185347711E-20
(PID.TID 0000.0001) %MON obc_S_vVel_sd                =   3.8910853402946E-03
(PID.TID 0000.0001) %MON obc_S_vVel_Int               =   1.4212631072041E-10
(PID.TID 0000.0001) // =======================================================
(PID.TID 0000.0001) // End OBCS MONITOR field statistics
(PID.TID 0000.0001) // =======================================================
 EXTERNAL_FIELDS_LOAD,       580 : iP,iLd,i0,i1=   29   30   29   30 ; Wght=  0.5000000000  0.5000000000
 cg2d: Sum(rhs),rhsMax =  -4.74642547487747E-12  2.97453922732146E-04
 EXTERNAL_FIELDS_LOAD,       581 : iP,iLd,i0,i1=   29   30   29   30 ; Wght=  0.4500000000  0.5500000000
 cg2d: Sum(rhs),rhsMax =  -5.74118530494161E-12  2.39892933385696E-04
 EXTERNAL_FIELDS_LOAD,       582 : iP,iLd,i0,i1=   29   30   29   30 ; Wght=  0.4000000000  0.6000000000
 cg2d: Sum(rhs),rhsMax =  -6.13908923696727E-12  1.81504537344278E-04
 EXTERNAL_FIELDS_LOAD,       583 : iP,iLd,i0,i1=   29   30   29   30 ; Wght=  0.3500000000  0.6500000000
 cg2d: Sum(rhs),rhsMax =  -7.48201500755385E-12  1.66426965741233E-04
 EXTERNAL_FIELDS_LOAD,       584 : iP,iLd,i0,i1=   29   30   29   30 ; Wght=  0.3000000000  0.7000000000
 cg2d: Sum(rhs),rhsMax =  -5.29576382746200E-12  2.21143995897976E-04
 EXTERNAL_FIELDS_LOAD,       585 : iP,iLd,i0,i1=   29   30   29   30 ; Wght=  0.2500000000  0.7500000000
 cg2d: Sum(rhs),rhsMax =  -3.78719278160133E-12  2.74864601130469E-04
 EXTERNAL_FIELDS_LOAD,       586 : iP,iLd,i0,i1=   29   30   29   30 ; Wght=  0.2000000000  0.8000000000
 cg2d: Sum(rhs),rhsMax =  -2.82796008832520E-12  3.27207898227336E-04
 EXTERNAL_FIELDS_LOAD,       587 : iP,iLd,i0,i1=   29   30   29   30 ; Wght=  0.1500000000  0.8500000000
 cg2d: Sum(rhs),rhsMax =  -2.47268872044515E-12  3.77801238514926E-04
 EXTERNAL_FIELDS_LOAD,       588 : iP,iLd,i0,i1=   29   30   29   30 ; Wght=  0.1000000000  0.9000000000
 cg2d: Sum(rhs),rhsMax =  -2.27373675443232E-12  4.26284092016426E-04
 EXTERNAL_FIELDS_LOAD,       589 : iP,iLd,i0,i1=   29   30   29   30 ; Wght=  0.0500000000  0.9500000000
 cg2d: Sum(rhs),rhsMax =  -1.33582034322899E-12  4.72311763041142E-04
 EXTERNAL_FIELDS_LOAD,       590 : iP,iLd,i0,i1=   29   30   30   31 ; Wght=  1.0000000000  0.0000000000
 EXTERNAL_FIELDS_LOAD, it=       590 : Reading new data, i0,i1=   30   31 (prev=   29   30 )
(PID.TID 0000.0001)  MDS_READ_FIELD: opening global file: ../input/merid_halfgauss2p5hr_272x320.bin
(PID.TID 0000.0001)  MDS_READ_FIELD: opening global file: ../input/merid_halfgauss2p5hr_272x320.bin
 cg2d: Sum(rhs),rhsMax =  -7.67386154620908E-13  5.15558886506111E-04
 EXTERNAL_FIELDS_LOAD,       591 : iP,iLd,i0,i1=   30   31   30   31 ; Wght=  0.9500000000  0.0500000000
 cg2d: Sum(rhs),rhsMax =   3.83693077310454E-13  5.55722658626301E-04
 EXTERNAL_FIELDS_LOAD,       592 : iP,iLd,i0,i1=   30   31   30   31 ; Wght=  0.9000000000  0.1000000000
 cg2d: Sum(rhs),rhsMax =  -1.35003119794419E-12  5.92525760690962E-04
 EXTERNAL_FIELDS_LOAD,       593 : iP,iLd,i0,i1=   30   31   30   31 ; Wght=  0.8500000000  0.1500000000
 cg2d: Sum(rhs),rhsMax =  -1.54898316395702E-12  6.25718940177794E-04
 EXTERNAL_FIELDS_LOAD,       594 : iP,iLd,i0,i1=   30   31   30   31 ; Wght=  0.8000000000  0.2000000000
 cg2d: Sum(rhs),rhsMax =  -1.36424205265939E-12  6.55083219423194E-04
 EXTERNAL_FIELDS_LOAD,       595 : iP,iLd,i0,i1=   30   31   30   31 ; Wght=  0.7500000000  0.2500000000
 cg2d: Sum(rhs),rhsMax =  -2.07478478841949E-12  6.90252686553106E-04
 EXTERNAL_FIELDS_LOAD,       596 : iP,iLd,i0,i1=   30   31   30   31 ; Wght=  0.7000000000  0.3000000000
 cg2d: Sum(rhs),rhsMax =   9.94759830064140E-14  7.28818372202588E-04
 EXTERNAL_FIELDS_LOAD,       597 : iP,iLd,i0,i1=   30   31   30   31 ; Wght=  0.6500000000  0.3500000000
 cg2d: Sum(rhs),rhsMax =   9.94759830064140E-14  7.64216307012797E-04
 EXTERNAL_FIELDS_LOAD,       598 : iP,iLd,i0,i1=   30   31   30   31 ; Wght=  0.6000000000  0.4000000000
 cg2d: Sum(rhs),rhsMax =  -2.03215222427389E-12  7.96330594331709E-04
 EXTERNAL_FIELDS_LOAD,       599 : iP,iLd,i0,i1=   30   31   30   31 ; Wght=  0.5500000000  0.4500000000
 cg2d: Sum(rhs),rhsMax =  -4.97379915032070E-13  8.25068158092605E-04
(PID.TID 0000.0001)      cg2d_init_res =   1.69249031176568E+00
(PID.TID 0000.0001)      cg2d_iters(min,last) =      -1      36
(PID.TID 0000.0001)      cg2d_last_res =   8.17024188756390E-08
(PID.TID 0000.0001) // =======================================================
(PID.TID 0000.0001) // Begin MONITOR dynamic field statistics
(PID.TID 0000.0001) // =======================================================
(PID.TID 0000.0001) %MON time_tsnumber                =                   600
(PID.TID 0000.0001) %MON time_secondsf                =   3.6000000000000E+04
(PID.TID 0000.0001) %MON dynstat_eta_max              =   7.2877973487084E-04
(PID.TID 0000.0001) %MON dynstat_eta_min              =  -5.6030212134063E-04
(PID.TID 0000.0001) %MON dynstat_eta_mean             =   0.0000000000000E+00
(PID.TID 0000.0001) %MON dynstat_eta_sd               =   4.0003632191364E-04
(PID.TID 0000.0001) %MON dynstat_eta_del2             =   2.5561107705919E-08
(PID.TID 0000.0001) %MON dynstat_uvel_max             =   7.3594824894295E-02
(PID.TID 0000.0001) %MON dynstat_uvel_min             =  -1.0489286021055E-02
(PID.TID 0000.0001) %MON dynstat_uvel_mean            =   4.1183170070635E-05
(PID.TID 0000.0001) %MON dynstat_uvel_sd              =   2.9266891977391E-03
(PID.TID 0000.0001) %MON dynstat_uvel_del2            =   1.6082629056642E-07
(PID.TID 0000.0001) %MON dynstat_vvel_max             =   6.6501360550198E-02
(PID.TID 0000.0001) %MON dynstat_vvel_min             =  -1.2967659240048E-02
(PID.TID 0000.0001) %MON dynstat_vvel_mean            =   5.3916221138269E-05
(PID.TID 0000.0001) %MON dynstat_vvel_sd              =   2.3544055980480E-03
(PID.TID 0000.0001) %MON dynstat_vvel_del2            =   1.7484538606954E-07
(PID.TID 0000.0001) %MON dynstat_wvel_max             =   1.3472230359055E-05
(PID.TID 0000.0001) %MON dynstat_wvel_min             =  -2.3581461652831E-05
(PID.TID 0000.0001) %MON dynstat_wvel_mean            =  -1.3098490816366E-07
(PID.TID 0000.0001) %MON dynstat_wvel_sd              =   8.5838178546249E-07
(PID.TID 0000.0001) %MON dynstat_wvel_del2            =   6.7514720735771E-10
(PID.TID 0000.0001) %MON dynstat_theta_max            =   1.6579214117111E+01
(PID.TID 0000.0001) %MON dynstat_theta_min            =   4.1845954487461E+00
(PID.TID 0000.0001) %MON dynstat_theta_mean           =   7.5988703300566E+00
(PID.TID 0000.0001) %MON dynstat_theta_sd             =   3.5908882418412E+00
(PID.TID 0000.0001) %MON dynstat_theta_del2           =   3.4702704448782E-08
(PID.TID 0000.0001) %MON dynstat_salt_max             =   3.4476099984176E+01
(PID.TID 0000.0001) %MON dynstat_salt_min             =   3.3629999999996E+01
(PID.TID 0000.0001) %MON dynstat_salt_mean            =   3.4188927593481E+01
(PID.TID 0000.0001) %MON dynstat_salt_sd              =   2.7007199634161E-01
(PID.TID 0000.0001) %MON dynstat_salt_del2            =   1.3686677977821E-09
(PID.TID 0000.0001) %MON trAdv_CFL_u_max              =   2.1383341540697E-03
(PID.TID 0000.0001) %MON trAdv_CFL_v_max              =   2.0538037355627E-03
(PID.TID 0000.0001) %MON trAdv_CFL_w_max              =   6.9505742361165E-04
(PID.TID 0000.0001) %MON advcfl_uvel_max              =   2.2032175294171E-03
(PID.TID 0000.0001) %MON advcfl_vvel_max              =   1.9857079889579E-03
(PID.TID 0000.0001) %MON advcfl_wvel_max              =   6.3838653952863E-04
(PID.TID 0000.0001) %MON advcfl_W_hf_max              =   6.7030586650507E-04
(PID.TID 0000.0001) %MON pe_b_mean                    =   8.1997014551861E-10
(PID.TID 0000.0001) %MON ke_max                       =   5.5950043705932E-03
(PID.TID 0000.0001) %MON ke_mean                      =   7.0474839261018E-06
(PID.TID 0000.0001) %MON ke_vol                       =   8.2635254160858E+14
(PID.TID 0000.0001) %MON vort_r_min                   =  -2.7415694789509E-05
(PID.TID 0000.0001) %MON vort_r_max                   =   1.0081819550022E-05
(PID.TID 0000.0001) %MON vort_a_mean                  =   6.9142466381008E-04
(PID.TID 0000.0001) %MON vort_a_sd                    =   1.4223291327877E-06
(PID.TID 0000.0001) %MON vort_p_mean                  =   6.9569812303954E-04
(PID.TID 0000.0001) %MON vort_p_sd                    =   9.4063571770195E-05
(PID.TID 0000.0001) %MON surfExpan_theta_mean         =   1.3992480836420E-13
(PID.TID 0000.0001) %MON surfExpan_salt_mean          =   1.4160347050821E-21
(PID.TID 0000.0001) // =======================================================
(PID.TID 0000.0001) // End MONITOR dynamic field statistics
(PID.TID 0000.0001) // =======================================================
(PID.TID 0000.0001) // =======================================================
(PID.TID 0000.0001) // Begin OBCS MONITOR field statistics
(PID.TID 0000.0001) // =======================================================
(PID.TID 0000.0001) %MON obc_S_vVel_max               =   6.6501360550198E-02
(PID.TID 0000.0001) %MON obc_S_vVel_min               =  -3.4299725661909E-04
(PID.TID 0000.0001) %MON obc_S_vVel_mean              =  -8.7215145457668E-20
(PID.TID 0000.0001) %MON obc_S_vVel_sd                =   2.9830230309559E-03
(PID.TID 0000.0001) %MON obc_S_vVel_Int               =  -1.4809131698712E-10
(PID.TID 0000.0001) // =======================================================
(PID.TID 0000.0001) // End OBCS MONITOR field statistics
(PID.TID 0000.0001) // =======================================================
 EXTERNAL_FIELDS_LOAD,       600 : iP,iLd,i0,i1=   30   31   30   31 ; Wght=  0.5000000000  0.5000000000
 cg2d: Sum(rhs),rhsMax =  -1.84741111297626E-12  8.50358797931189E-04
 EXTERNAL_FIELDS_LOAD,       601 : iP,iLd,i0,i1=   30   31   30   31 ; Wght=  0.4500000000  0.5500000000
 cg2d: Sum(rhs),rhsMax =  -3.26849658449646E-13  8.72155000312028E-04
 EXTERNAL_FIELDS_LOAD,       602 : iP,iLd,i0,i1=   30   31   30   31 ; Wght=  0.4000000000  0.6000000000
 cg2d: Sum(rhs),rhsMax =  -7.10542735760100E-13  8.90431514107517E-04
 EXTERNAL_FIELDS_LOAD,       603 : iP,iLd,i0,i1=   30   31   30   31 ; Wght=  0.3500000000  0.6500000000
 cg2d: Sum(rhs),rhsMax =  -1.20792265079217E-12  9.05184702420918E-04
 EXTERNAL_FIELDS_LOAD,       604 : iP,iLd,i0,i1=   30   31   30   31 ; Wght=  0.3000000000  0.7000000000
 cg2d: Sum(rhs),rhsMax =  -8.38440428196918E-13  9.26494093090341E-04
 EXTERNAL_FIELDS_LOAD,       605 : iP,iLd,i0,i1=   30   31   30   31 ; Wght=  0.2500000000  0.7500000000
 cg2d: Sum(rhs),rhsMax =  -7.10542735760100E-13  9.45880995379677E-04
 EXTERNAL_FIELDS_LOAD,       606 : iP,iLd,i0,i1=   30   31   30   31 ; Wght=  0.2000000000  0.8000000000
 cg2d: Sum(rhs),rhsMax =  -1.29318777908338E-12  9.62049675113991E-04
 EXTERNAL_FIELDS_LOAD,       607 : iP,iLd,i0,i1=   30   31   30   31 ; Wght=  0.1500000000  0.8500000000
 cg2d: Sum(rhs),rhsMax =  -1.69109171110904E-12  9.75017181935467E-04
 EXTERNAL_FIELDS_LOAD,       608 : iP,iLd,i0,i1=   30   31   30   31 ; Wght=  0.1000000000  0.9000000000
 cg2d: Sum(rhs),rhsMax =  -2.24531504500192E-12  9.84773885114986E-04
 EXTERNAL_FIELDS_LOAD,       609 : iP,iLd,i0,i1=   30   31   30   31 ; Wght=  0.0500000000  0.9500000000
 cg2d: Sum(rhs),rhsMax =   1.27897692436818E-13  9.91331195512657E-04
 EXTERNAL_FIELDS_LOAD,       610 : iP,iLd,i0,i1=   30   31   31   32 ; Wght=  1.0000000000  0.0000000000
 EXTERNAL_FIELDS_LOAD, it=       610 : Reading new data, i0,i1=   31   32 (prev=   30   31 )
(PID.TID 0000.0001)  MDS_READ_FIELD: opening global file: ../input/merid_halfgauss2p5hr_272x320.bin
(PID.TID 0000.0001)  MDS_READ_FIELD: opening global file: ../input/merid_halfgauss2p5hr_272x320.bin
 cg2d: Sum(rhs),rhsMax =  -1.47792889038101E-12  9.94720086762155E-04
 EXTERNAL_FIELDS_LOAD,       611 : iP,iLd,i0,i1=   31   32   31   32 ; Wght=  0.9500000000  0.0500000000
 cg2d: Sum(rhs),rhsMax =  -1.27897692436818E-13  9.94982506359740E-04
 EXTERNAL_FIELDS_LOAD,       612 : iP,iLd,i0,i1=   31   32   31   32 ; Wght=  0.9000000000  0.1000000000
 cg2d: Sum(rhs),rhsMax =  -1.93267624126747E-12  9.92170573370294E-04
 EXTERNAL_FIELDS_LOAD,       613 : iP,iLd,i0,i1=   31   32   31   32 ; Wght=  0.8500000000  0.1500000000
 cg2d: Sum(rhs),rhsMax =  -2.84217094304040E-14  9.86345730400660E-04
 EXTERNAL_FIELDS_LOAD,       614 : iP,iLd,i0,i1=   31   32   31   32 ; Wght=  0.8000000000  0.2000000000
 cg2d: Sum(rhs),rhsMax =   9.37916411203332E-13  9.77577885592409E-04
 EXTERNAL_FIELDS_LOAD,       615 : iP,iLd,i0,i1=   31   32   31   32 ; Wght=  0.7500000000  0.2500000000
 cg2d: Sum(rhs),rhsMax =  -1.81898940354586E-12  9.65944554817147E-04
 EXTERNAL_FIELDS_LOAD,       616 : iP,iLd,i0,i1=   31   32   31   32 ; Wght=  0.7000000000  0.3000000000
 cg2d: Sum(rhs),rhsMax =  -4.54747350886464E-13  9.51529994046068E-04
 EXTERNAL_FIELDS_LOAD,       617 : iP,iLd,i0,i1=   31   32   31   32 ; Wght=  0.6500000000  0.3500000000
 cg2d: Sum(rhs),rhsMax =  -2.38742359215394E-12  9.34424377787994E-04
 EXTERNAL_FIELDS_LOAD,       618 : iP,iLd,i0,i1=   31   32   31   32 ; Wght=  0.6000000000  0.4000000000
 cg2d: Sum(rhs),rhsMax =   1.09423581307055E-12  9.14722983830658E-04
 EXTERNAL_FIELDS_LOAD,       619 : iP,iLd,i0,i1=   31   32   31   32 ; Wght=  0.5500000000  0.4500000000
 cg2d: Sum(rhs),rhsMax =  -5.25801624462474E-13  8.92525423751060E-04
(PID.TID 0000.0001)      cg2d_init_res =   7.49079009943972E-01
(PID.TID 0000.0001)      cg2d_iters(min,last) =      -1      35
(PID.TID 0000.0001)      cg2d_last_res =   6.35628733747694E-08
(PID.TID 0000.0001) // =======================================================
(PID.TID 0000.0001) // Begin MONITOR dynamic field statistics
(PID.TID 0000.0001) // =======================================================
(PID.TID 0000.0001) %MON time_tsnumber                =                   620
(PID.TID 0000.0001) %MON time_secondsf                =   3.7200000000000E+04
(PID.TID 0000.0001) %MON dynstat_eta_max              =   7.6349184422093E-04
(PID.TID 0000.0001) %MON dynstat_eta_min              =  -6.9625689395116E-04
(PID.TID 0000.0001) %MON dynstat_eta_mean             =   1.9635681243805E-19
(PID.TID 0000.0001) %MON dynstat_eta_sd               =   5.1217280269424E-04
(PID.TID 0000.0001) %MON dynstat_eta_del2             =   9.6525146045783E-08
(PID.TID 0000.0001) %MON dynstat_uvel_max             =   9.0297983402679E-02
(PID.TID 0000.0001) %MON dynstat_uvel_min             =  -1.3186657443134E-02
(PID.TID 0000.0001) %MON dynstat_uvel_mean            =   5.4134962194941E-05
(PID.TID 0000.0001) %MON dynstat_uvel_sd              =   3.6928324040127E-03
(PID.TID 0000.0001) %MON dynstat_uvel_del2            =   1.7403148291771E-07
(PID.TID 0000.0001) %MON dynstat_vvel_max             =   1.4981208921001E-02
(PID.TID 0000.0001) %MON dynstat_vvel_min             =  -2.3141238561074E-02
(PID.TID 0000.0001) %MON dynstat_vvel_mean            =  -2.5311629356723E-05
(PID.TID 0000.0001) %MON dynstat_vvel_sd              =   6.0999953400399E-04
(PID.TID 0000.0001) %MON dynstat_vvel_del2            =   1.5649054447087E-07
(PID.TID 0000.0001) %MON dynstat_wvel_max             =   1.7443878448406E-05
(PID.TID 0000.0001) %MON dynstat_wvel_min             =  -1.0615990354555E-05
(PID.TID 0000.0001) %MON dynstat_wvel_mean            =  -1.1174775016045E-08
(PID.TID 0000.0001) %MON dynstat_wvel_sd              =   6.4189611470120E-07
(PID.TID 0000.0001) %MON dynstat_wvel_del2            =   6.7640545092985E-10
(PID.TID 0000.0001) %MON dynstat_theta_max            =   1.6579211578537E+01
(PID.TID 0000.0001) %MON dynstat_theta_min            =   4.1845956780483E+00
(PID.TID 0000.0001) %MON dynstat_theta_mean           =   7.5988718498255E+00
(PID.TID 0000.0001) %MON dynstat_theta_sd             =   3.5908885760647E+00
(PID.TID 0000.0001) %MON dynstat_theta_del2           =   2.8125000824711E-08
(PID.TID 0000.0001) %MON dynstat_salt_max             =   3.4476099960805E+01
(PID.TID 0000.0001) %MON dynstat_salt_min             =   3.3629999999996E+01
(PID.TID 0000.0001) %MON dynstat_salt_mean            =   3.4188927499185E+01
(PID.TID 0000.0001) %MON dynstat_salt_sd              =   2.7007200620735E-01
(PID.TID 0000.0001) %MON dynstat_salt_del2            =   1.1462189513112E-09
(PID.TID 0000.0001) %MON trAdv_CFL_u_max              =   2.7267385280594E-03
(PID.TID 0000.0001) %MON trAdv_CFL_v_max              =   5.9178162644270E-04
(PID.TID 0000.0001) %MON trAdv_CFL_w_max              =   4.3202284728033E-04
(PID.TID 0000.0001) %MON advcfl_uvel_max              =   2.7032623538066E-03
(PID.TID 0000.0001) %MON advcfl_vvel_max              =   6.9098950615331E-04
(PID.TID 0000.0001) %MON advcfl_wvel_max              =   4.5505769865406E-04
(PID.TID 0000.0001) %MON advcfl_W_hf_max              =   4.7574213950197E-04
(PID.TID 0000.0001) %MON pe_b_mean                    =   1.3441019621110E-09
(PID.TID 0000.0001) %MON ke_max                       =   6.2532463091819E-03
(PID.TID 0000.0001) %MON ke_mean                      =   7.0063151509803E-06
(PID.TID 0000.0001) %MON ke_vol                       =   8.2635254160858E+14
(PID.TID 0000.0001) %MON vort_r_min                   =  -4.3237238979556E-05
(PID.TID 0000.0001) %MON vort_r_max                   =   1.2134311555752E-05
(PID.TID 0000.0001) %MON vort_a_mean                  =   6.9142466381008E-04
(PID.TID 0000.0001) %MON vort_a_sd                    =   1.4262292593780E-06
(PID.TID 0000.0001) %MON vort_p_mean                  =   6.9569812303954E-04
(PID.TID 0000.0001) %MON vort_p_sd                    =   9.4060402296320E-05
(PID.TID 0000.0001) %MON surfExpan_theta_mean         =  -3.3543230156089E-13
(PID.TID 0000.0001) %MON surfExpan_salt_mean          =   1.3486044810306E-22
(PID.TID 0000.0001) // =======================================================
(PID.TID 0000.0001) // End MONITOR dynamic field statistics
(PID.TID 0000.0001) // =======================================================
(PID.TID 0000.0001) // =======================================================
(PID.TID 0000.0001) // Begin OBCS MONITOR field statistics
(PID.TID 0000.0001) // =======================================================
(PID.TID 0000.0001) %MON obc_S_vVel_max               =   3.4849955085088E-03
(PID.TID 0000.0001) %MON obc_S_vVel_min               =  -6.1306759687801E-05
(PID.TID 0000.0001) %MON obc_S_vVel_mean              =  -8.1599430785170E-21
(PID.TID 0000.0001) %MON obc_S_vVel_sd                =   1.5804432023897E-04
(PID.TID 0000.0001) %MON obc_S_vVel_Int               =  -1.3855583347322E-11
(PID.TID 0000.0001) // =======================================================
(PID.TID 0000.0001) // End OBCS MONITOR field statistics
(PID.TID 0000.0001) // =======================================================
 EXTERNAL_FIELDS_LOAD,       620 : iP,iLd,i0,i1=   31   32   31   32 ; Wght=  0.5000000000  0.5000000000
 cg2d: Sum(rhs),rhsMax =  -2.70006239588838E-13  8.67934928986093E-04
 EXTERNAL_FIELDS_LOAD,       621 : iP,iLd,i0,i1=   31   32   31   32 ; Wght=  0.4500000000  0.5500000000
 cg2d: Sum(rhs),rhsMax =  -5.68434188608080E-14  8.41057686510924E-04
 EXTERNAL_FIELDS_LOAD,       622 : iP,iLd,i0,i1=   31   32   31   32 ; Wght=  0.4000000000  0.6000000000
 cg2d: Sum(rhs),rhsMax =  -1.64845914696343E-12  8.12002228251582E-04
 EXTERNAL_FIELDS_LOAD,       623 : iP,iLd,i0,i1=   31   32   31   32 ; Wght=  0.3500000000  0.6500000000
 cg2d: Sum(rhs),rhsMax =   8.81072992342524E-13  7.80878896101472E-04
 EXTERNAL_FIELDS_LOAD,       624 : iP,iLd,i0,i1=   31   32   31   32 ; Wght=  0.3000000000  0.7000000000
 cg2d: Sum(rhs),rhsMax =  -1.03739239420975E-12  7.47799373164593E-04
 EXTERNAL_FIELDS_LOAD,       625 : iP,iLd,i0,i1=   31   32   31   32 ; Wght=  0.2500000000  0.7500000000
 cg2d: Sum(rhs),rhsMax =  -2.60058641288197E-12  7.12876280181800E-04
 EXTERNAL_FIELDS_LOAD,       626 : iP,iLd,i0,i1=   31   32   31   32 ; Wght=  0.2000000000  0.8000000000
 cg2d: Sum(rhs),rhsMax =   1.13686837721616E-12  6.76222852350082E-04
 EXTERNAL_FIELDS_LOAD,       627 : iP,iLd,i0,i1=   31   32   31   32 ; Wght=  0.1500000000  0.8500000000
 cg2d: Sum(rhs),rhsMax =  -7.53175299905706E-13  6.37952677751982E-04
 EXTERNAL_FIELDS_LOAD,       628 : iP,iLd,i0,i1=   31   32   31   32 ; Wght=  0.1000000000  0.9000000000
 cg2d: Sum(rhs),rhsMax =  -1.52056145452661E-12  5.98179505560934E-04
 EXTERNAL_FIELDS_LOAD,       629 : iP,iLd,i0,i1=   31   32   31   32 ; Wght=  0.0500000000  0.9500000000
 cg2d: Sum(rhs),rhsMax =  -2.30215846386272E-12  5.57017121182620E-04
 EXTERNAL_FIELDS_LOAD,       630 : iP,iLd,i0,i1=   31   32   32   33 ; Wght=  1.0000000000  0.0000000000
 EXTERNAL_FIELDS_LOAD, it=       630 : Reading new data, i0,i1=   32   33 (prev=   31   32 )
(PID.TID 0000.0001)  MDS_READ_FIELD: opening global file: ../input/merid_halfgauss2p5hr_272x320.bin
(PID.TID 0000.0001)  MDS_READ_FIELD: opening global file: ../input/merid_halfgauss2p5hr_272x320.bin
 cg2d: Sum(rhs),rhsMax =  -1.22213350550737E-12  5.14579274914689E-04
 EXTERNAL_FIELDS_LOAD,       631 : iP,iLd,i0,i1=   32   33   32   33 ; Wght=  0.9500000000  0.0500000000
 cg2d: Sum(rhs),rhsMax =  -2.34479102800833E-12  4.72911986354346E-04
 EXTERNAL_FIELDS_LOAD,       632 : iP,iLd,i0,i1=   32   33   32   33 ; Wght=  0.9000000000  0.1000000000
 cg2d: Sum(rhs),rhsMax =  -1.74793512996985E-12  4.70165826446282E-04
 EXTERNAL_FIELDS_LOAD,       633 : iP,iLd,i0,i1=   32   33   32   33 ; Wght=  0.8500000000  0.1500000000
 cg2d: Sum(rhs),rhsMax =  -1.36424205265939E-12  5.12090208606307E-04
 EXTERNAL_FIELDS_LOAD,       634 : iP,iLd,i0,i1=   32   33   32   33 ; Wght=  0.8000000000  0.2000000000
 cg2d: Sum(rhs),rhsMax =  -2.28084218178992E-12  5.52914296694751E-04
 EXTERNAL_FIELDS_LOAD,       635 : iP,iLd,i0,i1=   32   33   32   33 ; Wght=  0.7500000000  0.2500000000
 cg2d: Sum(rhs),rhsMax =  -1.68398628375144E-12  5.92636734476866E-04
 EXTERNAL_FIELDS_LOAD,       636 : iP,iLd,i0,i1=   32   33   32   33 ; Wght=  0.7000000000  0.3000000000
 cg2d: Sum(rhs),rhsMax =  -1.63424829224823E-12  6.31263605794842E-04
 EXTERNAL_FIELDS_LOAD,       637 : iP,iLd,i0,i1=   32   33   32   33 ; Wght=  0.6500000000  0.3500000000
 cg2d: Sum(rhs),rhsMax =  -1.54898316395702E-12  6.68806632750109E-04
 EXTERNAL_FIELDS_LOAD,       638 : iP,iLd,i0,i1=   32   33   32   33 ; Wght=  0.6000000000  0.4000000000
 cg2d: Sum(rhs),rhsMax =  -1.36246569581999E-12  7.05281349766954E-04
 EXTERNAL_FIELDS_LOAD,       639 : iP,iLd,i0,i1=   32   33   32   33 ; Wght=  0.5500000000  0.4500000000
 cg2d: Sum(rhs),rhsMax =  -1.36379796344954E-12  7.40705283990632E-04
(PID.TID 0000.0001)      cg2d_init_res =   2.59747531108522E+00
(PID.TID 0000.0001)      cg2d_iters(min,last) =      -1      37
(PID.TID 0000.0001)      cg2d_last_res =   7.57125978605685E-08
(PID.TID 0000.0001) // =======================================================
(PID.TID 0000.0001) // Begin MONITOR dynamic field statistics
(PID.TID 0000.0001) // =======================================================
(PID.TID 0000.0001) %MON time_tsnumber                =                   640
(PID.TID 0000.0001) %MON time_secondsf                =   3.8400000000000E+04
(PID.TID 0000.0001) %MON dynstat_eta_max              =   7.9781783698514E-05
(PID.TID 0000.0001) %MON dynstat_eta_min              =  -6.3950521377859E-04
(PID.TID 0000.0001) %MON dynstat_eta_mean             =   1.4156975539619E-19
(PID.TID 0000.0001) %MON dynstat_eta_sd               =   7.9986733120852E-05
(PID.TID 0000.0001) %MON dynstat_eta_del2             =   1.1695279417776E-07
(PID.TID 0000.0001) %MON dynstat_uvel_max             =   5.9964491332512E-02
(PID.TID 0000.0001) %MON dynstat_uvel_min             =  -1.1432772096310E-02
(PID.TID 0000.0001) %MON dynstat_uvel_mean            =   7.7706803374811E-06
(PID.TID 0000.0001) %MON dynstat_uvel_sd              =   2.0681601440393E-03
(PID.TID 0000.0001) %MON dynstat_uvel_del2            =   1.7030758807395E-07
(PID.TID 0000.0001) %MON dynstat_vvel_max             =   1.0108599115414E-02
(PID.TID 0000.0001) %MON dynstat_vvel_min             =  -7.8633533129435E-02
(PID.TID 0000.0001) %MON dynstat_vvel_mean            =  -7.4523136808347E-05
(PID.TID 0000.0001) %MON dynstat_vvel_sd              =   3.1088989607017E-03
(PID.TID 0000.0001) %MON dynstat_vvel_del2            =   1.4420983164539E-07
(PID.TID 0000.0001) %MON dynstat_wvel_max             =   2.2902743767258E-05
(PID.TID 0000.0001) %MON dynstat_wvel_min             =  -8.6781215771944E-06
(PID.TID 0000.0001) %MON dynstat_wvel_mean            =   1.1523317732114E-07
(PID.TID 0000.0001) %MON dynstat_wvel_sd              =   1.0536158877135E-06
(PID.TID 0000.0001) %MON dynstat_wvel_del2            =   6.8909680152250E-10
(PID.TID 0000.0001) %MON dynstat_theta_max            =   1.6579178723689E+01
(PID.TID 0000.0001) %MON dynstat_theta_min            =   4.1845959192694E+00
(PID.TID 0000.0001) %MON dynstat_theta_mean           =   7.5988706164593E+00
(PID.TID 0000.0001) %MON dynstat_theta_sd             =   3.5908859102445E+00
(PID.TID 0000.0001) %MON dynstat_theta_del2           =   2.1232246548481E-08
(PID.TID 0000.0001) %MON dynstat_salt_max             =   3.4476099936219E+01
(PID.TID 0000.0001) %MON dynstat_salt_min             =   3.3629999999995E+01
(PID.TID 0000.0001) %MON dynstat_salt_mean            =   3.4188927572403E+01
(PID.TID 0000.0001) %MON dynstat_salt_sd              =   2.7007187948465E-01
(PID.TID 0000.0001) %MON dynstat_salt_del2            =   7.2092793076439E-10
(PID.TID 0000.0001) %MON trAdv_CFL_u_max              =   1.9496971485941E-03
(PID.TID 0000.0001) %MON trAdv_CFL_v_max              =   2.2915913587202E-03
(PID.TID 0000.0001) %MON trAdv_CFL_w_max              =   5.2230153429456E-04
(PID.TID 0000.0001) %MON advcfl_uvel_max              =   1.8721916621530E-03
(PID.TID 0000.0001) %MON advcfl_vvel_max              =   2.3479705323809E-03
(PID.TID 0000.0001) %MON advcfl_wvel_max              =   5.5583732512196E-04
(PID.TID 0000.0001) %MON advcfl_W_hf_max              =   5.8362919137806E-04
(PID.TID 0000.0001) %MON pe_b_mean                    =   3.2781974487403E-11
(PID.TID 0000.0001) %MON ke_max                       =   4.7004536482111E-03
(PID.TID 0000.0001) %MON ke_mean                      =   6.9661887876024E-06
(PID.TID 0000.0001) %MON ke_vol                       =   8.2635254160858E+14
(PID.TID 0000.0001) %MON vort_r_min                   =  -3.1123420081049E-05
(PID.TID 0000.0001) %MON vort_r_max                   =   9.6048155223020E-06
(PID.TID 0000.0001) %MON vort_a_mean                  =   6.9142466381008E-04
(PID.TID 0000.0001) %MON vort_a_sd                    =   1.4227530224590E-06
(PID.TID 0000.0001) %MON vort_p_mean                  =   6.9569812303954E-04
(PID.TID 0000.0001) %MON vort_p_sd                    =   9.4060213261290E-05
(PID.TID 0000.0001) %MON surfExpan_theta_mean         =  -1.4864411067100E-13
(PID.TID 0000.0001) %MON surfExpan_salt_mean          =   1.2137440329275E-21
(PID.TID 0000.0001) // =======================================================
(PID.TID 0000.0001) // End MONITOR dynamic field statistics
(PID.TID 0000.0001) // =======================================================
(PID.TID 0000.0001) // =======================================================
(PID.TID 0000.0001) // Begin OBCS MONITOR field statistics
(PID.TID 0000.0001) // =======================================================
(PID.TID 0000.0001) %MON obc_S_vVel_max               =   2.7049345288181E-04
(PID.TID 0000.0001) %MON obc_S_vVel_min               =  -6.1614868431606E-02
(PID.TID 0000.0001) %MON obc_S_vVel_mean              =   6.4304536044908E-20
(PID.TID 0000.0001) %MON obc_S_vVel_sd                =   2.7643248011035E-03
(PID.TID 0000.0001) %MON obc_S_vVel_Int               =   1.0918910220425E-10
(PID.TID 0000.0001) // =======================================================
(PID.TID 0000.0001) // End OBCS MONITOR field statistics
(PID.TID 0000.0001) // =======================================================
 EXTERNAL_FIELDS_LOAD,       640 : iP,iLd,i0,i1=   32   33   32   33 ; Wght=  0.5000000000  0.5000000000
 cg2d: Sum(rhs),rhsMax =  -1.38467015631250E-12  7.75096171954469E-04
 EXTERNAL_FIELDS_LOAD,       641 : iP,iLd,i0,i1=   32   33   32   33 ; Wght=  0.4500000000  0.5500000000
 cg2d: Sum(rhs),rhsMax =  -1.20792265079217E-12  8.08470241472172E-04
 EXTERNAL_FIELDS_LOAD,       642 : iP,iLd,i0,i1=   32   33   32   33 ; Wght=  0.4000000000  0.6000000000
 cg2d: Sum(rhs),rhsMax =  -1.16173737296776E-12  8.40840586335290E-04
 EXTERNAL_FIELDS_LOAD,       643 : iP,iLd,i0,i1=   32   33   32   33 ; Wght=  0.3500000000  0.6500000000
 cg2d: Sum(rhs),rhsMax =  -1.09423581307055E-12  8.72215659634718E-04
 EXTERNAL_FIELDS_LOAD,       644 : iP,iLd,i0,i1=   32   33   32   33 ; Wght=  0.3000000000  0.7000000000
 cg2d: Sum(rhs),rhsMax =  -5.89750470680883E-13  9.02597909403074E-04
 EXTERNAL_FIELDS_LOAD,       645 : iP,iLd,i0,i1=   32   33   32   33 ; Wght=  0.2500000000  0.7500000000
 cg2d: Sum(rhs),rhsMax =  -1.25766064229538E-12  9.31982577822870E-04
 EXTERNAL_FIELDS_LOAD,       646 : iP,iLd,i0,i1=   32   33   32   33 ; Wght=  0.2000000000  0.8000000000
 cg2d: Sum(rhs),rhsMax =  -1.30739863379858E-12  9.60356682474784E-04
 EXTERNAL_FIELDS_LOAD,       647 : iP,iLd,i0,i1=   32   33   32   33 ; Wght=  0.1500000000  0.8500000000
 cg2d: Sum(rhs),rhsMax =  -7.17648163117701E-13  9.87698195148851E-04
 EXTERNAL_FIELDS_LOAD,       648 : iP,iLd,i0,i1=   32   33   32   33 ; Wght=  0.1000000000  0.9000000000
 cg2d: Sum(rhs),rhsMax =  -1.22213350550737E-12  1.01397543042207E-03
 EXTERNAL_FIELDS_LOAD,       649 : iP,iLd,i0,i1=   32   33   32   33 ; Wght=  0.0500000000  0.9500000000
 cg2d: Sum(rhs),rhsMax =  -1.72661884789704E-12  1.03914665287855E-03
 EXTERNAL_FIELDS_LOAD,       650 : iP,iLd,i0,i1=   32   33   33   34 ; Wght=  1.0000000000  0.0000000000
 EXTERNAL_FIELDS_LOAD, it=       650 : Reading new data, i0,i1=   33   34 (prev=   32   33 )
(PID.TID 0000.0001)  MDS_READ_FIELD: opening global file: ../input/merid_halfgauss2p5hr_272x320.bin
(PID.TID 0000.0001)  MDS_READ_FIELD: opening global file: ../input/merid_halfgauss2p5hr_272x320.bin
 cg2d: Sum(rhs),rhsMax =  -1.99662508748588E-12  1.06315990830277E-03
 EXTERNAL_FIELDS_LOAD,       651 : iP,iLd,i0,i1=   33   34   33   34 ; Wght=  0.9500000000  0.0500000000
 cg2d: Sum(rhs),rhsMax =  -1.55608859131462E-12  1.08595308059315E-03
 EXTERNAL_FIELDS_LOAD,       652 : iP,iLd,i0,i1=   33   34   33   34 ; Wght=  0.9000000000  0.1000000000
 cg2d: Sum(rhs),rhsMax =  -8.66862137627322E-13  1.10745417254177E-03
 EXTERNAL_FIELDS_LOAD,       653 : iP,iLd,i0,i1=   33   34   33   34 ; Wght=  0.8500000000  0.1500000000
 cg2d: Sum(rhs),rhsMax =  -1.54898316395702E-12  1.12758180506417E-03
 EXTERNAL_FIELDS_LOAD,       654 : iP,iLd,i0,i1=   33   34   33   34 ; Wght=  0.8000000000  0.2000000000
 cg2d: Sum(rhs),rhsMax =  -1.16529008664656E-12  1.14624592600902E-03
 EXTERNAL_FIELDS_LOAD,       655 : iP,iLd,i0,i1=   33   34   33   34 ; Wght=  0.7500000000  0.2500000000
 cg2d: Sum(rhs),rhsMax =  -1.05160324892495E-12  1.16334871630314E-03
 EXTERNAL_FIELDS_LOAD,       656 : iP,iLd,i0,i1=   33   34   33   34 ; Wght=  0.7000000000  0.3000000000
 cg2d: Sum(rhs),rhsMax =  -5.68434188608080E-14  1.17878567819052E-03
 EXTERNAL_FIELDS_LOAD,       657 : iP,iLd,i0,i1=   33   34   33   34 ; Wght=  0.6500000000  0.3500000000
 cg2d: Sum(rhs),rhsMax =  -9.66338120633736E-13  1.19244688733951E-03
 EXTERNAL_FIELDS_LOAD,       658 : iP,iLd,i0,i1=   33   34   33   34 ; Wght=  0.6000000000  0.4000000000
 cg2d: Sum(rhs),rhsMax =   9.94759830064140E-13  1.20421838810037E-03
 EXTERNAL_FIELDS_LOAD,       659 : iP,iLd,i0,i1=   33   34   33   34 ; Wght=  0.5500000000  0.4500000000
 cg2d: Sum(rhs),rhsMax =  -2.13162820728030E-13  1.21398370895160E-03
(PID.TID 0000.0001)      cg2d_init_res =   8.89207302159535E-01
(PID.TID 0000.0001)      cg2d_iters(min,last) =      -1      35
(PID.TID 0000.0001)      cg2d_last_res =   6.37086263900978E-08
(PID.TID 0000.0001) // =======================================================
(PID.TID 0000.0001) // Begin MONITOR dynamic field statistics
(PID.TID 0000.0001) // =======================================================
(PID.TID 0000.0001) %MON time_tsnumber                =                   660
(PID.TID 0000.0001) %MON time_secondsf                =   3.9600000000000E+04
(PID.TID 0000.0001) %MON dynstat_eta_max              =   6.2733946290341E-04
(PID.TID 0000.0001) %MON dynstat_eta_min              =  -1.0687441719366E-03
(PID.TID 0000.0001) %MON dynstat_eta_mean             =   3.1719177393840E-19
(PID.TID 0000.0001) %MON dynstat_eta_sd               =   4.4681299340406E-04
(PID.TID 0000.0001) %MON dynstat_eta_del2             =   7.9893981736116E-08
(PID.TID 0000.0001) %MON dynstat_uvel_max             =   1.0895687865432E-02
(PID.TID 0000.0001) %MON dynstat_uvel_min             =  -3.0799979899631E-02
(PID.TID 0000.0001) %MON dynstat_uvel_mean            =  -4.6168014999078E-05
(PID.TID 0000.0001) %MON dynstat_uvel_sd              =   9.2277786563738E-04
(PID.TID 0000.0001) %MON dynstat_uvel_del2            =   1.4520013011659E-07
(PID.TID 0000.0001) %MON dynstat_vvel_max             =   1.3039827038719E-02
(PID.TID 0000.0001) %MON dynstat_vvel_min             =  -8.8155615558187E-02
(PID.TID 0000.0001) %MON dynstat_vvel_mean            =  -4.1901438278398E-05
(PID.TID 0000.0001) %MON dynstat_vvel_sd              =   3.6087364014789E-03
(PID.TID 0000.0001) %MON dynstat_vvel_del2            =   1.4911779455704E-07
(PID.TID 0000.0001) %MON dynstat_wvel_max             =   2.5355075778125E-05
(PID.TID 0000.0001) %MON dynstat_wvel_min             =  -1.0567415535012E-05
(PID.TID 0000.0001) %MON dynstat_wvel_mean            =   1.6711302363218E-07
(PID.TID 0000.0001) %MON dynstat_wvel_sd              =   1.1546922663171E-06
(PID.TID 0000.0001) %MON dynstat_wvel_del2            =   6.4720875049065E-10
(PID.TID 0000.0001) %MON dynstat_theta_max            =   1.6579104263732E+01
(PID.TID 0000.0001) %MON dynstat_theta_min            =   4.1845957505600E+00
(PID.TID 0000.0001) %MON dynstat_theta_mean           =   7.5988674293028E+00
(PID.TID 0000.0001) %MON dynstat_theta_sd             =   3.5908811527236E+00
(PID.TID 0000.0001) %MON dynstat_theta_del2           =   2.9086953614204E-08
(PID.TID 0000.0001) %MON dynstat_salt_max             =   3.4476099953414E+01
(PID.TID 0000.0001) %MON dynstat_salt_min             =   3.3629999999995E+01
(PID.TID 0000.0001) %MON dynstat_salt_mean            =   3.4188927765582E+01
(PID.TID 0000.0001) %MON dynstat_salt_sd              =   2.7007165722156E-01
(PID.TID 0000.0001) %MON dynstat_salt_del2            =   1.0686652085876E-09
(PID.TID 0000.0001) %MON trAdv_CFL_u_max              =   8.2119157490431E-04
(PID.TID 0000.0001) %MON trAdv_CFL_v_max              =   2.6478209338566E-03
(PID.TID 0000.0001) %MON trAdv_CFL_w_max              =   6.2909842789859E-04
(PID.TID 0000.0001) %MON advcfl_uvel_max              =   9.2206306398349E-04
(PID.TID 0000.0001) %MON advcfl_vvel_max              =   2.6322966723854E-03
(PID.TID 0000.0001) %MON advcfl_wvel_max              =   6.5874573902252E-04
(PID.TID 0000.0001) %MON advcfl_W_hf_max              =   6.9168302597365E-04
(PID.TID 0000.0001) %MON pe_b_mean                    =   1.0229414510934E-09
(PID.TID 0000.0001) %MON ke_max                       =   4.1419496752581E-03
(PID.TID 0000.0001) %MON ke_mean                      =   6.9236114712400E-06
(PID.TID 0000.0001) %MON ke_vol                       =   8.2635254160858E+14
(PID.TID 0000.0001) %MON vort_r_min                   =  -7.6328301738308E-06
(PID.TID 0000.0001) %MON vort_r_max                   =   2.5193130989861E-06
(PID.TID 0000.0001) %MON vort_a_mean                  =   6.9142466381008E-04
(PID.TID 0000.0001) %MON vort_a_sd                    =   1.4190484364213E-06
(PID.TID 0000.0001) %MON vort_p_mean                  =   6.9569812303954E-04
(PID.TID 0000.0001) %MON vort_p_sd                    =   9.4063184163908E-05
(PID.TID 0000.0001) %MON surfExpan_theta_mean         =  -5.4678352609099E-14
(PID.TID 0000.0001) %MON surfExpan_salt_mean          =   4.8212610196844E-21
(PID.TID 0000.0001) // =======================================================
(PID.TID 0000.0001) // End MONITOR dynamic field statistics
(PID.TID 0000.0001) // =======================================================
(PID.TID 0000.0001) // =======================================================
(PID.TID 0000.0001) // Begin OBCS MONITOR field statistics
(PID.TID 0000.0001) // =======================================================
(PID.TID 0000.0001) %MON obc_S_vVel_max               =   4.2188882424491E-04
(PID.TID 0000.0001) %MON obc_S_vVel_min               =  -8.6567853784993E-02
(PID.TID 0000.0001) %MON obc_S_vVel_mean              =   5.1637793635334E-21
(PID.TID 0000.0001) %MON obc_S_vVel_sd                =   3.8851345116471E-03
(PID.TID 0000.0001) %MON obc_S_vVel_Int               =   8.7680973592796E-12
(PID.TID 0000.0001) // =======================================================
(PID.TID 0000.0001) // End OBCS MONITOR field statistics
(PID.TID 0000.0001) // =======================================================
 EXTERNAL_FIELDS_LOAD,       660 : iP,iLd,i0,i1=   33   34   33   34 ; Wght=  0.5000000000  0.5000000000
 cg2d: Sum(rhs),rhsMax =  -2.41584530158434E-13  1.22162547333213E-03
 EXTERNAL_FIELDS_LOAD,       661 : iP,iLd,i0,i1=   33   34   33   34 ; Wght=  0.4500000000  0.5500000000
 cg2d: Sum(rhs),rhsMax =  -7.67386154620908E-13  1.22702707959866E-03
 EXTERNAL_FIELDS_LOAD,       662 : iP,iLd,i0,i1=   33   34   33   34 ; Wght=  0.4000000000  0.6000000000
 cg2d: Sum(rhs),rhsMax =  -1.46371803566581E-12  1.23007442299376E-03
 EXTERNAL_FIELDS_LOAD,       663 : iP,iLd,i0,i1=   33   34   33   34 ; Wght=  0.3500000000  0.6500000000
 cg2d: Sum(rhs),rhsMax =  -1.79056769411545E-12  1.23065763157249E-03
 EXTERNAL_FIELDS_LOAD,       664 : iP,iLd,i0,i1=   33   34   33   34 ; Wght=  0.3000000000  0.7000000000
 cg2d: Sum(rhs),rhsMax =  -2.16004991671070E-12  1.22867278844429E-03
 EXTERNAL_FIELDS_LOAD,       665 : iP,iLd,i0,i1=   33   34   33   34 ; Wght=  0.2500000000  0.7500000000
 cg2d: Sum(rhs),rhsMax =  -1.05160324892495E-12  1.22402361265318E-03
 EXTERNAL_FIELDS_LOAD,       666 : iP,iLd,i0,i1=   33   34   33   34 ; Wght=  0.2000000000  0.8000000000
 cg2d: Sum(rhs),rhsMax =  -7.81597009336110E-13  1.21662307231348E-03
 EXTERNAL_FIELDS_LOAD,       667 : iP,iLd,i0,i1=   33   34   33   34 ; Wght=  0.1500000000  0.8500000000
 cg2d: Sum(rhs),rhsMax =   3.41060513164848E-13  1.20639490408419E-03
 EXTERNAL_FIELDS_LOAD,       668 : iP,iLd,i0,i1=   33   34   33   34 ; Wght=  0.1000000000  0.9000000000
 cg2d: Sum(rhs),rhsMax =  -1.17950094136177E-12  1.19327501537443E-03
 EXTERNAL_FIELDS_LOAD,       669 : iP,iLd,i0,i1=   33   34   33   34 ; Wght=  0.0500000000  0.9500000000
 cg2d: Sum(rhs),rhsMax =  -1.23634436022257E-12  1.17721274804082E-03
 EXTERNAL_FIELDS_LOAD,       670 : iP,iLd,i0,i1=   33   34   34   35 ; Wght=  1.0000000000  0.0000000000
 EXTERNAL_FIELDS_LOAD, it=       670 : Reading new data, i0,i1=   34   35 (prev=   33   34 )
(PID.TID 0000.0001)  MDS_READ_FIELD: opening global file: ../input/merid_halfgauss2p5hr_272x320.bin
(PID.TID 0000.0001)  MDS_READ_FIELD: opening global file: ../input/merid_halfgauss2p5hr_272x320.bin
 cg2d: Sum(rhs),rhsMax =  -8.95283847057726E-13  1.15817198384889E-03
 EXTERNAL_FIELDS_LOAD,       671 : iP,iLd,i0,i1=   34   35   34   35 ; Wght=  0.9500000000  0.0500000000
 cg2d: Sum(rhs),rhsMax =  -4.83169060316868E-13  1.13613207523655E-03
 EXTERNAL_FIELDS_LOAD,       672 : iP,iLd,i0,i1=   34   35   34   35 ; Wght=  0.9000000000  0.1000000000
 cg2d: Sum(rhs),rhsMax =  -6.39488462184090E-13  1.11108858780821E-03
 EXTERNAL_FIELDS_LOAD,       673 : iP,iLd,i0,i1=   34   35   34   35 ; Wght=  0.8500000000  0.1500000000
 cg2d: Sum(rhs),rhsMax =  -1.63424829224823E-12  1.08305384445621E-03
 EXTERNAL_FIELDS_LOAD,       674 : iP,iLd,i0,i1=   34   35   34   35 ; Wght=  0.8000000000  0.2000000000
 cg2d: Sum(rhs),rhsMax =  -1.50635059981141E-12  1.05205726402871E-03
 EXTERNAL_FIELDS_LOAD,       675 : iP,iLd,i0,i1=   34   35   34   35 ; Wght=  0.7500000000  0.2500000000
 cg2d: Sum(rhs),rhsMax =  -5.96855898038484E-13  1.01814549038507E-03
 EXTERNAL_FIELDS_LOAD,       676 : iP,iLd,i0,i1=   34   35   34   35 ; Wght=  0.7000000000  0.3000000000
 cg2d: Sum(rhs),rhsMax =  -2.78532752417959E-12  9.81382312501496E-04
 EXTERNAL_FIELDS_LOAD,       677 : iP,iLd,i0,i1=   34   35   34   35 ; Wght=  0.6500000000  0.3500000000
 cg2d: Sum(rhs),rhsMax =   8.81072992342524E-13  9.41848378597741E-04
 EXTERNAL_FIELDS_LOAD,       678 : iP,iLd,i0,i1=   34   35   34   35 ; Wght=  0.6000000000  0.4000000000
 cg2d: Sum(rhs),rhsMax =  -3.97903932025656E-13  8.99640710521424E-04
 EXTERNAL_FIELDS_LOAD,       679 : iP,iLd,i0,i1=   34   35   34   35 ; Wght=  0.5500000000  0.4500000000
 cg2d: Sum(rhs),rhsMax =  -2.55795384873636E-13  8.54872028634015E-04
(PID.TID 0000.0001)      cg2d_init_res =   1.09470217365198E+00
(PID.TID 0000.0001)      cg2d_iters(min,last) =      -1      35
(PID.TID 0000.0001)      cg2d_last_res =   8.22460882118856E-08
(PID.TID 0000.0001) // =======================================================
(PID.TID 0000.0001) // Begin MONITOR dynamic field statistics
(PID.TID 0000.0001) // =======================================================
(PID.TID 0000.0001) %MON time_tsnumber                =                   680
(PID.TID 0000.0001) %MON time_secondsf                =   4.0800000000000E+04
(PID.TID 0000.0001) %MON dynstat_eta_max              =   7.0286186376495E-04
(PID.TID 0000.0001) %MON dynstat_eta_min              =  -7.5854816728835E-04
(PID.TID 0000.0001) %MON dynstat_eta_mean             =   1.3162379734859E-19
(PID.TID 0000.0001) %MON dynstat_eta_sd               =   4.5298449281629E-04
(PID.TID 0000.0001) %MON dynstat_eta_del2             =   2.6283006860889E-08
(PID.TID 0000.0001) %MON dynstat_uvel_max             =   1.0050590779495E-02
(PID.TID 0000.0001) %MON dynstat_uvel_min             =  -8.2275672356248E-02
(PID.TID 0000.0001) %MON dynstat_uvel_mean            =  -4.8571312931494E-05
(PID.TID 0000.0001) %MON dynstat_uvel_sd              =   3.2583831063933E-03
(PID.TID 0000.0001) %MON dynstat_uvel_del2            =   1.3823161608442E-07
(PID.TID 0000.0001) %MON dynstat_vvel_max             =   1.0922000806376E-02
(PID.TID 0000.0001) %MON dynstat_vvel_min             =  -5.5444499838130E-02
(PID.TID 0000.0001) %MON dynstat_vvel_mean            =   3.6453106532764E-05
(PID.TID 0000.0001) %MON dynstat_vvel_sd              =   1.7767897384936E-03
(PID.TID 0000.0001) %MON dynstat_vvel_del2            =   1.4641292057311E-07
(PID.TID 0000.0001) %MON dynstat_wvel_max             =   2.0538567958294E-05
(PID.TID 0000.0001) %MON dynstat_wvel_min             =  -1.3378392202453E-05
(PID.TID 0000.0001) %MON dynstat_wvel_mean            =   1.1083158850921E-07
(PID.TID 0000.0001) %MON dynstat_wvel_sd              =   8.0969662441725E-07
(PID.TID 0000.0001) %MON dynstat_wvel_del2            =   6.0412522388095E-10
(PID.TID 0000.0001) %MON dynstat_theta_max            =   1.6579058121759E+01
(PID.TID 0000.0001) %MON dynstat_theta_min            =   4.1845945786531E+00
(PID.TID 0000.0001) %MON dynstat_theta_mean           =   7.5988643492024E+00
(PID.TID 0000.0001) %MON dynstat_theta_sd             =   3.5908765661216E+00
(PID.TID 0000.0001) %MON dynstat_theta_del2           =   3.5392230230868E-08
(PID.TID 0000.0001) %MON dynstat_salt_max             =   3.4476100072862E+01
(PID.TID 0000.0001) %MON dynstat_salt_min             =   3.3629999999995E+01
(PID.TID 0000.0001) %MON dynstat_salt_mean            =   3.4188927953818E+01
(PID.TID 0000.0001) %MON dynstat_salt_sd              =   2.7007144231118E-01
(PID.TID 0000.0001) %MON dynstat_salt_del2            =   1.4438834900312E-09
(PID.TID 0000.0001) %MON trAdv_CFL_u_max              =   2.4230024661505E-03
(PID.TID 0000.0001) %MON trAdv_CFL_v_max              =   1.7364265322581E-03
(PID.TID 0000.0001) %MON trAdv_CFL_w_max              =   5.2891858293099E-04
(PID.TID 0000.0001) %MON advcfl_uvel_max              =   2.4630970516794E-03
(PID.TID 0000.0001) %MON advcfl_vvel_max              =   1.6555538918522E-03
(PID.TID 0000.0001) %MON advcfl_wvel_max              =   5.4020935532288E-04
(PID.TID 0000.0001) %MON advcfl_W_hf_max              =   5.6721982308902E-04
(PID.TID 0000.0001) %MON pe_b_mean                    =   1.0513948830314E-09
(PID.TID 0000.0001) %MON ke_max                       =   5.7026495079752E-03
(PID.TID 0000.0001) %MON ke_mean                      =   6.8824695999980E-06
(PID.TID 0000.0001) %MON ke_vol                       =   8.2635254160858E+14
(PID.TID 0000.0001) %MON vort_r_min                   =  -9.6177571810144E-06
(PID.TID 0000.0001) %MON vort_r_max                   =   3.2443070792340E-05
(PID.TID 0000.0001) %MON vort_a_mean                  =   6.9142466381008E-04
(PID.TID 0000.0001) %MON vort_a_sd                    =   1.4226524228840E-06
(PID.TID 0000.0001) %MON vort_p_mean                  =   6.9569812303954E-04
(PID.TID 0000.0001) %MON vort_p_sd                    =   9.4067817785655E-05
(PID.TID 0000.0001) %MON surfExpan_theta_mean         =  -4.9407756249103E-14
(PID.TID 0000.0001) %MON surfExpan_salt_mean          =  -2.7646391861127E-21
(PID.TID 0000.0001) // =======================================================
(PID.TID 0000.0001) // End MONITOR dynamic field statistics
(PID.TID 0000.0001) // =======================================================
(PID.TID 0000.0001) // =======================================================
(PID.TID 0000.0001) // Begin OBCS MONITOR field statistics
(PID.TID 0000.0001) // =======================================================
(PID.TID 0000.0001) %MON obc_S_vVel_max               =   3.0118652882107E-04
(PID.TID 0000.0001) %MON obc_S_vVel_min               =  -5.5444499838130E-02
(PID.TID 0000.0001) %MON obc_S_vVel_mean              =  -7.9419261378039E-20
(PID.TID 0000.0001) %MON obc_S_vVel_sd                =   2.4891360828559E-03
(PID.TID 0000.0001) %MON obc_S_vVel_Int               =  -1.3485390581991E-10
(PID.TID 0000.0001) // =======================================================
(PID.TID 0000.0001) // End OBCS MONITOR field statistics
(PID.TID 0000.0001) // =======================================================
 EXTERNAL_FIELDS_LOAD,       680 : iP,iLd,i0,i1=   34   35   34   35 ; Wght=  0.5000000000  0.5000000000
 cg2d: Sum(rhs),rhsMax =  -1.33582034322899E-12  8.07669899405648E-04
 EXTERNAL_FIELDS_LOAD,       681 : iP,iLd,i0,i1=   34   35   34   35 ; Wght=  0.4500000000  0.5500000000
 cg2d: Sum(rhs),rhsMax =  -2.84217094304040E-14  7.58700131988429E-04
 EXTERNAL_FIELDS_LOAD,       682 : iP,iLd,i0,i1=   34   35   34   35 ; Wght=  0.4000000000  0.6000000000
 cg2d: Sum(rhs),rhsMax =  -6.96331881044898E-13  7.28466438965917E-04
 EXTERNAL_FIELDS_LOAD,       683 : iP,iLd,i0,i1=   34   35   34   35 ; Wght=  0.3500000000  0.6500000000
 cg2d: Sum(rhs),rhsMax =   1.08002495835535E-12  6.95850359665925E-04
 EXTERNAL_FIELDS_LOAD,       684 : iP,iLd,i0,i1=   34   35   34   35 ; Wght=  0.3000000000  0.7000000000
 cg2d: Sum(rhs),rhsMax =  -2.07478478841949E-12  6.60966902618233E-04
 EXTERNAL_FIELDS_LOAD,       685 : iP,iLd,i0,i1=   34   35   34   35 ; Wght=  0.2500000000  0.7500000000
 cg2d: Sum(rhs),rhsMax =  -1.69109171110904E-12  6.23934442010499E-04
 EXTERNAL_FIELDS_LOAD,       686 : iP,iLd,i0,i1=   34   35   34   35 ; Wght=  0.2000000000  0.8000000000
 cg2d: Sum(rhs),rhsMax =  -5.11590769747272E-13  5.84886711767683E-04
 EXTERNAL_FIELDS_LOAD,       687 : iP,iLd,i0,i1=   34   35   34   35 ; Wght=  0.1500000000  0.8500000000
 cg2d: Sum(rhs),rhsMax =  -9.23705556488130E-13  5.43960391135410E-04
 EXTERNAL_FIELDS_LOAD,       688 : iP,iLd,i0,i1=   34   35   34   35 ; Wght=  0.1000000000  0.9000000000
 cg2d: Sum(rhs),rhsMax =  -1.46371803566581E-12  5.01305824595214E-04
 EXTERNAL_FIELDS_LOAD,       689 : iP,iLd,i0,i1=   34   35   34   35 ; Wght=  0.0500000000  0.9500000000
 cg2d: Sum(rhs),rhsMax =  -1.22213350550737E-12  4.57075091309270E-04
 EXTERNAL_FIELDS_LOAD,       690 : iP,iLd,i0,i1=   34   35   35   36 ; Wght=  1.0000000000  0.0000000000
 EXTERNAL_FIELDS_LOAD, it=       690 : Reading new data, i0,i1=   35   36 (prev=   34   35 )
(PID.TID 0000.0001)  MDS_READ_FIELD: opening global file: ../input/merid_halfgauss2p5hr_272x320.bin
(PID.TID 0000.0001)  MDS_READ_FIELD: opening global file: ../input/merid_halfgauss2p5hr_272x320.bin
 cg2d: Sum(rhs),rhsMax =  -3.19744231092045E-12  4.11432168703820E-04
 EXTERNAL_FIELDS_LOAD,       691 : iP,iLd,i0,i1=   35   36   35   36 ; Wght=  0.9500000000  0.0500000000
 cg2d: Sum(rhs),rhsMax =  -2.67164068645798E-12  3.64541453998171E-04
 EXTERNAL_FIELDS_LOAD,       692 : iP,iLd,i0,i1=   35   36   35   36 ; Wght=  0.9000000000  0.1000000000
 cg2d: Sum(rhs),rhsMax =  -1.26476606965298E-12  3.16577336333373E-04
 EXTERNAL_FIELDS_LOAD,       693 : iP,iLd,i0,i1=   35   36   35   36 ; Wght=  0.8500000000  0.1500000000
 cg2d: Sum(rhs),rhsMax =  -2.27373675443232E-12  2.67713213048393E-04
 EXTERNAL_FIELDS_LOAD,       694 : iP,iLd,i0,i1=   35   36   35   36 ; Wght=  0.8000000000  0.2000000000
 cg2d: Sum(rhs),rhsMax =  -1.03739239420975E-12  2.20745154041730E-04
 EXTERNAL_FIELDS_LOAD,       695 : iP,iLd,i0,i1=   35   36   35   36 ; Wght=  0.7500000000  0.2500000000
 cg2d: Sum(rhs),rhsMax =  -3.16902060149005E-12  1.75778320107784E-04
 EXTERNAL_FIELDS_LOAD,       696 : iP,iLd,i0,i1=   35   36   35   36 ; Wght=  0.7000000000  0.3000000000
 cg2d: Sum(rhs),rhsMax =  -3.86535248253495E-12  1.36502420708153E-04
 EXTERNAL_FIELDS_LOAD,       697 : iP,iLd,i0,i1=   35   36   35   36 ; Wght=  0.6500000000  0.3500000000
 cg2d: Sum(rhs),rhsMax =  -3.20987680879625E-12  1.97471582137821E-04
 EXTERNAL_FIELDS_LOAD,       698 : iP,iLd,i0,i1=   35   36   35   36 ; Wght=  0.6000000000  0.4000000000
 cg2d: Sum(rhs),rhsMax =  -2.17426077142591E-12  2.57554250368541E-04
 EXTERNAL_FIELDS_LOAD,       699 : iP,iLd,i0,i1=   35   36   35   36 ; Wght=  0.5500000000  0.4500000000
 cg2d: Sum(rhs),rhsMax =  -1.74082970261225E-12  3.16592171542167E-04
(PID.TID 0000.0001)      cg2d_init_res =   5.89700644208624E+00
(PID.TID 0000.0001)      cg2d_iters(min,last) =      -1      39
(PID.TID 0000.0001)      cg2d_last_res =   6.38731306152415E-08
(PID.TID 0000.0001) // =======================================================
(PID.TID 0000.0001) // Begin MONITOR dynamic field statistics
(PID.TID 0000.0001) // =======================================================
(PID.TID 0000.0001) %MON time_tsnumber                =                   700
(PID.TID 0000.0001) %MON time_secondsf                =   4.2000000000000E+04
(PID.TID 0000.0001) %MON dynstat_eta_max              =   2.7740251965345E-04
(PID.TID 0000.0001) %MON dynstat_eta_min              =  -6.2018145396577E-05
(PID.TID 0000.0001) %MON dynstat_eta_mean             =   7.3903525560477E-20
(PID.TID 0000.0001) %MON dynstat_eta_sd               =   3.8983843761704E-05
(PID.TID 0000.0001) %MON dynstat_eta_del2             =   2.2856640158664E-08
(PID.TID 0000.0001) %MON dynstat_uvel_max             =   1.2594495233028E-02
(PID.TID 0000.0001) %MON dynstat_uvel_min             =  -8.6794123334646E-02
(PID.TID 0000.0001) %MON dynstat_uvel_mean            =   2.3397414347056E-06
(PID.TID 0000.0001) %MON dynstat_uvel_sd              =   3.4883827842542E-03
(PID.TID 0000.0001) %MON dynstat_uvel_del2            =   1.5009415796853E-07
(PID.TID 0000.0001) %MON dynstat_vvel_max             =   3.8976391832253E-02
(PID.TID 0000.0001) %MON dynstat_vvel_min             =  -8.6564359991121E-03
(PID.TID 0000.0001) %MON dynstat_vvel_mean            =   7.2898753153889E-05
(PID.TID 0000.0001) %MON dynstat_vvel_sd              =   1.2302214790565E-03
(PID.TID 0000.0001) %MON dynstat_vvel_del2            =   1.3385505687224E-07
(PID.TID 0000.0001) %MON dynstat_wvel_max             =   8.6868446318651E-06
(PID.TID 0000.0001) %MON dynstat_wvel_min             =  -1.7350922218461E-05
(PID.TID 0000.0001) %MON dynstat_wvel_mean            =  -1.5997433941342E-08
(PID.TID 0000.0001) %MON dynstat_wvel_sd              =   7.2372717353865E-07
(PID.TID 0000.0001) %MON dynstat_wvel_del2            =   6.4111748589675E-10
(PID.TID 0000.0001) %MON dynstat_theta_max            =   1.6579028138371E+01
(PID.TID 0000.0001) %MON dynstat_theta_min            =   4.1845922243060E+00
(PID.TID 0000.0001) %MON dynstat_theta_mean           =   7.5988633623682E+00
(PID.TID 0000.0001) %MON dynstat_theta_sd             =   3.5908743033692E+00
(PID.TID 0000.0001) %MON dynstat_theta_del2           =   3.0161464517686E-08
(PID.TID 0000.0001) %MON dynstat_salt_max             =   3.4476100312831E+01
(PID.TID 0000.0001) %MON dynstat_salt_min             =   3.3629999999995E+01
(PID.TID 0000.0001) %MON dynstat_salt_mean            =   3.4188928015938E+01
(PID.TID 0000.0001) %MON dynstat_salt_sd              =   2.7007133280189E-01
(PID.TID 0000.0001) %MON dynstat_salt_del2            =   1.2354617423467E-09
(PID.TID 0000.0001) %MON trAdv_CFL_u_max              =   2.6338912089451E-03
(PID.TID 0000.0001) %MON trAdv_CFL_v_max              =   1.0672321890850E-03
(PID.TID 0000.0001) %MON trAdv_CFL_w_max              =   4.6392714548695E-04
(PID.TID 0000.0001) %MON advcfl_uvel_max              =   2.5983659566634E-03
(PID.TID 0000.0001) %MON advcfl_vvel_max              =   1.1638217925426E-03
(PID.TID 0000.0001) %MON advcfl_wvel_max              =   4.5263275352506E-04
(PID.TID 0000.0001) %MON advcfl_W_hf_max              =   4.7320696959438E-04
(PID.TID 0000.0001) %MON pe_b_mean                    =   7.7869700599381E-12
(PID.TID 0000.0001) %MON ke_max                       =   6.0057713364516E-03
(PID.TID 0000.0001) %MON ke_mean                      =   6.8435237202714E-06
(PID.TID 0000.0001) %MON ke_vol                       =   8.2635254160858E+14
(PID.TID 0000.0001) %MON vort_r_min                   =  -1.1278398600994E-05
(PID.TID 0000.0001) %MON vort_r_max                   =   4.2595581211297E-05
(PID.TID 0000.0001) %MON vort_a_mean                  =   6.9142466381008E-04
(PID.TID 0000.0001) %MON vort_a_sd                    =   1.4255775320340E-06
(PID.TID 0000.0001) %MON vort_p_mean                  =   6.9569812303954E-04
(PID.TID 0000.0001) %MON vort_p_sd                    =   9.4070874569155E-05
(PID.TID 0000.0001) %MON surfExpan_theta_mean         =  -5.6792405782692E-13
(PID.TID 0000.0001) %MON surfExpan_salt_mean          =   1.3486044810306E-21
(PID.TID 0000.0001) // =======================================================
(PID.TID 0000.0001) // End MONITOR dynamic field statistics
(PID.TID 0000.0001) // =======================================================
(PID.TID 0000.0001) // =======================================================
(PID.TID 0000.0001) // Begin OBCS MONITOR field statistics
(PID.TID 0000.0001) // =======================================================
(PID.TID 0000.0001) %MON obc_S_vVel_max               =   1.1308469184414E-02
(PID.TID 0000.0001) %MON obc_S_vVel_min               =  -8.2588517395149E-05
(PID.TID 0000.0001) %MON obc_S_vVel_mean              =   7.5761933044385E-21
(PID.TID 0000.0001) %MON obc_S_vVel_sd                =   5.0744356132025E-04
(PID.TID 0000.0001) %MON obc_S_vVel_Int               =   1.2864376230937E-11
(PID.TID 0000.0001) // =======================================================
(PID.TID 0000.0001) // End OBCS MONITOR field statistics
(PID.TID 0000.0001) // =======================================================
 EXTERNAL_FIELDS_LOAD,       700 : iP,iLd,i0,i1=   35   36   35   36 ; Wght=  0.5000000000  0.5000000000
 cg2d: Sum(rhs),rhsMax =  -2.00373051484348E-12  3.74435672217997E-04
 EXTERNAL_FIELDS_LOAD,       701 : iP,iLd,i0,i1=   35   36   35   36 ; Wght=  0.4500000000  0.5500000000
 cg2d: Sum(rhs),rhsMax =  -1.61293201017543E-12  4.30943840415380E-04
 EXTERNAL_FIELDS_LOAD,       702 : iP,iLd,i0,i1=   35   36   35   36 ; Wght=  0.4000000000  0.6000000000
 cg2d: Sum(rhs),rhsMax =  -8.95283847057726E-13  4.85984568298963E-04
 EXTERNAL_FIELDS_LOAD,       703 : iP,iLd,i0,i1=   35   36   35   36 ; Wght=  0.3500000000  0.6500000000
 cg2d: Sum(rhs),rhsMax =  -6.53699316899292E-13  5.39434465028527E-04
 EXTERNAL_FIELDS_LOAD,       704 : iP,iLd,i0,i1=   35   36   35   36 ; Wght=  0.3000000000  0.7000000000
 cg2d: Sum(rhs),rhsMax =  -1.08002495835535E-12  5.91178650354046E-04
 EXTERNAL_FIELDS_LOAD,       705 : iP,iLd,i0,i1=   35   36   35   36 ; Wght=  0.2500000000  0.7500000000
 cg2d: Sum(rhs),rhsMax =  -7.53175299905706E-13  6.41110441560048E-04
 EXTERNAL_FIELDS_LOAD,       706 : iP,iLd,i0,i1=   35   36   35   36 ; Wght=  0.2000000000  0.8000000000
 cg2d: Sum(rhs),rhsMax =  -1.60582658281783E-12  6.89130947754664E-04
 EXTERNAL_FIELDS_LOAD,       707 : iP,iLd,i0,i1=   35   36   35   36 ; Wght=  0.1500000000  0.8500000000
 cg2d: Sum(rhs),rhsMax =  -9.66338120633736E-13  7.35148587010344E-04
 EXTERNAL_FIELDS_LOAD,       708 : iP,iLd,i0,i1=   35   36   35   36 ; Wght=  0.1000000000  0.9000000000
 cg2d: Sum(rhs),rhsMax =  -1.09423581307055E-12  7.79078542638837E-04
 EXTERNAL_FIELDS_LOAD,       709 : iP,iLd,i0,i1=   35   36   35   36 ; Wght=  0.0500000000  0.9500000000
 cg2d: Sum(rhs),rhsMax =  -1.02318153949454E-12  8.20842175557023E-04
 EXTERNAL_FIELDS_LOAD,       710 : iP,iLd,i0,i1=   35   36   36   37 ; Wght=  1.0000000000  0.0000000000
 EXTERNAL_FIELDS_LOAD, it=       710 : Reading new data, i0,i1=   36   37 (prev=   35   36 )
(PID.TID 0000.0001)  MDS_READ_FIELD: opening global file: ../input/merid_halfgauss2p5hr_272x320.bin
(PID.TID 0000.0001)  MDS_READ_FIELD: opening global file: ../input/merid_halfgauss2p5hr_272x320.bin
 cg2d: Sum(rhs),rhsMax =  -1.13686837721616E-13  8.60366409797396E-04
 EXTERNAL_FIELDS_LOAD,       711 : iP,iLd,i0,i1=   36   37   36   37 ; Wght=  0.9500000000  0.0500000000
 cg2d: Sum(rhs),rhsMax =  -6.11066752753686E-13  8.97583108460523E-04
 EXTERNAL_FIELDS_LOAD,       712 : iP,iLd,i0,i1=   36   37   36   37 ; Wght=  0.9000000000  0.1000000000
 cg2d: Sum(rhs),rhsMax =  -4.54747350886464E-13  9.32428456535294E-04
 EXTERNAL_FIELDS_LOAD,       713 : iP,iLd,i0,i1=   36   37   36   37 ; Wght=  0.8500000000  0.1500000000
 cg2d: Sum(rhs),rhsMax =  -1.33582034322899E-12  9.64842366533548E-04
 EXTERNAL_FIELDS_LOAD,       714 : iP,iLd,i0,i1=   36   37   36   37 ; Wght=  0.8000000000  0.2000000000
 cg2d: Sum(rhs),rhsMax =  -5.25801624462474E-13  9.94767921971847E-04
 EXTERNAL_FIELDS_LOAD,       715 : iP,iLd,i0,i1=   36   37   36   37 ; Wght=  0.7500000000  0.2500000000
 cg2d: Sum(rhs),rhsMax =  -8.81072992342524E-13  1.02215087187846E-03
 EXTERNAL_FIELDS_LOAD,       716 : iP,iLd,i0,i1=   36   37   36   37 ; Wght=  0.7000000000  0.3000000000
 cg2d: Sum(rhs),rhsMax =  -1.27897692436818E-13  1.04693918870222E-03
 EXTERNAL_FIELDS_LOAD,       717 : iP,iLd,i0,i1=   36   37   36   37 ; Wght=  0.6500000000  0.3500000000
 cg2d: Sum(rhs),rhsMax =  -9.94759830064140E-13  1.06908269977325E-03
 EXTERNAL_FIELDS_LOAD,       718 : iP,iLd,i0,i1=   36   37   36   37 ; Wght=  0.6000000000  0.4000000000
 cg2d: Sum(rhs),rhsMax =  -1.15107923193136E-12  1.08853280081788E-03
 EXTERNAL_FIELDS_LOAD,       719 : iP,iLd,i0,i1=   36   37   36   37 ; Wght=  0.5500000000  0.4500000000
 cg2d: Sum(rhs),rhsMax =  -7.38964445190504E-13  1.10524225775140E-03
(PID.TID 0000.0001)      cg2d_init_res =   6.67270217811130E-01
(PID.TID 0000.0001)      cg2d_iters(min,last) =      -1      34
(PID.TID 0000.0001)      cg2d_last_res =   7.36462143846613E-08
(PID.TID 0000.0001) // =======================================================
(PID.TID 0000.0001) // Begin MONITOR dynamic field statistics
(PID.TID 0000.0001) // =======================================================
(PID.TID 0000.0001) %MON time_tsnumber                =                   720
(PID.TID 0000.0001) %MON time_secondsf                =   4.3200000000000E+04
(PID.TID 0000.0001) %MON dynstat_eta_max              =   9.7838438577128E-04
(PID.TID 0000.0001) %MON dynstat_eta_min              =  -7.0589742945065E-04
(PID.TID 0000.0001) %MON dynstat_eta_mean             =   1.8341020942016E-19
(PID.TID 0000.0001) %MON dynstat_eta_sd               =   4.7226277743635E-04
(PID.TID 0000.0001) %MON dynstat_eta_del2             =   3.2250018071996E-08
(PID.TID 0000.0001) %MON dynstat_uvel_max             =   1.0283805790714E-02
(PID.TID 0000.0001) %MON dynstat_uvel_min             =  -4.7879408461493E-02
(PID.TID 0000.0001) %MON dynstat_uvel_mean            =   4.9174431491048E-05
(PID.TID 0000.0001) %MON dynstat_uvel_sd              =   1.4697352832923E-03
(PID.TID 0000.0001) %MON dynstat_uvel_del2            =   1.4411380491272E-07
(PID.TID 0000.0001) %MON dynstat_vvel_max             =   8.4946143926564E-02
(PID.TID 0000.0001) %MON dynstat_vvel_min             =  -9.2839722180973E-03
(PID.TID 0000.0001) %MON dynstat_vvel_mean            =   2.8448883979059E-05
(PID.TID 0000.0001) %MON dynstat_vvel_sd              =   3.3860890297991E-03
(PID.TID 0000.0001) %MON dynstat_vvel_del2            =   1.3261601331054E-07
(PID.TID 0000.0001) %MON dynstat_wvel_max             =   7.7647295164018E-06
(PID.TID 0000.0001) %MON dynstat_wvel_min             =  -2.5085508899392E-05
(PID.TID 0000.0001) %MON dynstat_wvel_mean            =  -1.3205709045899E-07
(PID.TID 0000.0001) %MON dynstat_wvel_sd              =   1.1544816925790E-06
(PID.TID 0000.0001) %MON dynstat_wvel_del2            =   6.6287285959335E-10
(PID.TID 0000.0001) %MON dynstat_theta_max            =   1.6579005923399E+01
(PID.TID 0000.0001) %MON dynstat_theta_min            =   4.1845938532125E+00
(PID.TID 0000.0001) %MON dynstat_theta_mean           =   7.5988650846537E+00
(PID.TID 0000.0001) %MON dynstat_theta_sd             =   3.5908749914902E+00
(PID.TID 0000.0001) %MON dynstat_theta_del2           =   2.4630718609299E-08
(PID.TID 0000.0001) %MON dynstat_salt_max             =   3.4476100146806E+01
(PID.TID 0000.0001) %MON dynstat_salt_min             =   3.3629999999995E+01
(PID.TID 0000.0001) %MON dynstat_salt_mean            =   3.4188927913196E+01
(PID.TID 0000.0001) %MON dynstat_salt_sd              =   2.7007135754739E-01
(PID.TID 0000.0001) %MON dynstat_salt_del2            =   8.5775550577402E-10
(PID.TID 0000.0001) %MON trAdv_CFL_u_max              =   1.6106593888689E-03
(PID.TID 0000.0001) %MON trAdv_CFL_v_max              =   2.4924988795519E-03
(PID.TID 0000.0001) %MON trAdv_CFL_w_max              =   5.8654347849723E-04
(PID.TID 0000.0001) %MON advcfl_uvel_max              =   1.5228436534657E-03
(PID.TID 0000.0001) %MON advcfl_vvel_max              =   2.5364629419697E-03
(PID.TID 0000.0001) %MON advcfl_wvel_max              =   5.6632494328449E-04
(PID.TID 0000.0001) %MON advcfl_W_hf_max              =   5.9206698616106E-04
(PID.TID 0000.0001) %MON pe_b_mean                    =   1.1427905043368E-09
(PID.TID 0000.0001) %MON ke_max                       =   4.3974618026365E-03
(PID.TID 0000.0001) %MON ke_mean                      =   6.8042093339646E-06
(PID.TID 0000.0001) %MON ke_vol                       =   8.2635254160858E+14
(PID.TID 0000.0001) %MON vort_r_min                   =  -8.0064289363695E-06
(PID.TID 0000.0001) %MON vort_r_max                   =   2.5315529374604E-05
(PID.TID 0000.0001) %MON vort_a_mean                  =   6.9142466381008E-04
(PID.TID 0000.0001) %MON vort_a_sd                    =   1.4218618405051E-06
(PID.TID 0000.0001) %MON vort_p_mean                  =   6.9569812303954E-04
(PID.TID 0000.0001) %MON vort_p_sd                    =   9.4069871996218E-05
(PID.TID 0000.0001) %MON surfExpan_theta_mean         =  -2.2246931081726E-13
(PID.TID 0000.0001) %MON surfExpan_salt_mean          =  -4.3829645633494E-22
(PID.TID 0000.0001) // =======================================================
(PID.TID 0000.0001) // End MONITOR dynamic field statistics
(PID.TID 0000.0001) // =======================================================
(PID.TID 0000.0001) // =======================================================
(PID.TID 0000.0001) // Begin OBCS MONITOR field statistics
(PID.TID 0000.0001) // =======================================================
(PID.TID 0000.0001) %MON obc_S_vVel_max               =   7.0240333723140E-02
(PID.TID 0000.0001) %MON obc_S_vVel_min               =  -3.3132209723074E-04
(PID.TID 0000.0001) %MON obc_S_vVel_mean              =   3.3568750449161E-20
(PID.TID 0000.0001) %MON obc_S_vVel_sd                =   3.1534431046691E-03
(PID.TID 0000.0001) %MON obc_S_vVel_Int               =   5.6999738262675E-11
(PID.TID 0000.0001) // =======================================================
(PID.TID 0000.0001) // End OBCS MONITOR field statistics
(PID.TID 0000.0001) // =======================================================
(PID.TID 0000.0001) %CHECKPOINT       720 ckptA
 EXTERNAL_FIELDS_LOAD,       720 : iP,iLd,i0,i1=   36   37   36   37 ; Wght=  0.5000000000  0.5000000000
 cg2d: Sum(rhs),rhsMax =  -7.10542735760100E-13  1.11916510158470E-03
 EXTERNAL_FIELDS_LOAD,       721 : iP,iLd,i0,i1=   36   37   36   37 ; Wght=  0.4500000000  0.5500000000
 cg2d: Sum(rhs),rhsMax =  -1.09423581307055E-12  1.13025661835313E-03
 EXTERNAL_FIELDS_LOAD,       722 : iP,iLd,i0,i1=   36   37   36   37 ; Wght=  0.4000000000  0.6000000000
 cg2d: Sum(rhs),rhsMax =  -9.52127265918534E-13  1.13847343448901E-03
 EXTERNAL_FIELDS_LOAD,       723 : iP,iLd,i0,i1=   36   37   36   37 ; Wght=  0.3500000000  0.6500000000
 cg2d: Sum(rhs),rhsMax =  -3.12638803734444E-13  1.14377369601178E-03
 EXTERNAL_FIELDS_LOAD,       724 : iP,iLd,i0,i1=   36   37   36   37 ; Wght=  0.3000000000  0.7000000000
 cg2d: Sum(rhs),rhsMax =   1.84741111297626E-13  1.14611733755879E-03
 EXTERNAL_FIELDS_LOAD,       725 : iP,iLd,i0,i1=   36   37   36   37 ; Wght=  0.2500000000  0.7500000000
 cg2d: Sum(rhs),rhsMax =  -6.53699316899292E-13  1.14546643622780E-03
 EXTERNAL_FIELDS_LOAD,       726 : iP,iLd,i0,i1=   36   37   36   37 ; Wght=  0.2000000000  0.8000000000
 cg2d: Sum(rhs),rhsMax =  -1.57740487338742E-12  1.14178564287431E-03
 EXTERNAL_FIELDS_LOAD,       727 : iP,iLd,i0,i1=   36   37   36   37 ; Wght=  0.1500000000  0.8500000000
 cg2d: Sum(rhs),rhsMax =   4.97379915032070E-13  1.13504268273814E-03
 EXTERNAL_FIELDS_LOAD,       728 : iP,iLd,i0,i1=   36   37   36   37 ; Wght=  0.1000000000  0.9000000000
 cg2d: Sum(rhs),rhsMax =  -2.27373675443232E-13  1.12520891503761E-03
 EXTERNAL_FIELDS_LOAD,       729 : iP,iLd,i0,i1=   36   37   36   37 ; Wght=  0.0500000000  0.9500000000
 cg2d: Sum(rhs),rhsMax =  -1.27897692436818E-12  1.11225994176381E-03
 EXTERNAL_FIELDS_LOAD,       730 : iP,iLd,i0,i1=   36   37   37   38 ; Wght=  1.0000000000  0.0000000000
 EXTERNAL_FIELDS_LOAD, it=       730 : Reading new data, i0,i1=   37   38 (prev=   36   37 )
(PID.TID 0000.0001)  MDS_READ_FIELD: opening global file: ../input/merid_halfgauss2p5hr_272x320.bin
(PID.TID 0000.0001)  MDS_READ_FIELD: opening global file: ../input/merid_halfgauss2p5hr_272x320.bin
 cg2d: Sum(rhs),rhsMax =  -1.79056769411545E-12  1.09617625349858E-03
 EXTERNAL_FIELDS_LOAD,       731 : iP,iLd,i0,i1=   37   38   37   38 ; Wght=  0.9500000000  0.0500000000
 cg2d: Sum(rhs),rhsMax =  -1.62003743753303E-12  1.07694390021916E-03
 EXTERNAL_FIELDS_LOAD,       732 : iP,iLd,i0,i1=   37   38   37   38 ; Wght=  0.9000000000  0.1000000000
 cg2d: Sum(rhs),rhsMax =  -9.94759830064140E-13  1.05455517566797E-03
 EXTERNAL_FIELDS_LOAD,       733 : iP,iLd,i0,i1=   37   38   37   38 ; Wght=  0.8500000000  0.1500000000
 cg2d: Sum(rhs),rhsMax =  -2.13162820728030E-13  1.02900930166763E-03
 EXTERNAL_FIELDS_LOAD,       734 : iP,iLd,i0,i1=   37   38   37   38 ; Wght=  0.8000000000  0.2000000000
 cg2d: Sum(rhs),rhsMax =  -6.96331881044898E-13  1.00031310135258E-03
 EXTERNAL_FIELDS_LOAD,       735 : iP,iLd,i0,i1=   37   38   37   38 ; Wght=  0.7500000000  0.2500000000
 cg2d: Sum(rhs),rhsMax =  -2.70006239588838E-13  9.68481649200715E-04
 EXTERNAL_FIELDS_LOAD,       736 : iP,iLd,i0,i1=   37   38   37   38 ; Wght=  0.7000000000  0.3000000000
 cg2d: Sum(rhs),rhsMax =  -5.96855898038484E-13  9.33538886378612E-04
 EXTERNAL_FIELDS_LOAD,       737 : iP,iLd,i0,i1=   37   38   37   38 ; Wght=  0.6500000000  0.3500000000
 cg2d: Sum(rhs),rhsMax =   2.84217094304040E-14  8.95518191517149E-04
 EXTERNAL_FIELDS_LOAD,       738 : iP,iLd,i0,i1=   37   38   37   38 ; Wght=  0.6000000000  0.4000000000
 cg2d: Sum(rhs),rhsMax =   2.84217094304040E-13  8.54462896982391E-04
 EXTERNAL_FIELDS_LOAD,       739 : iP,iLd,i0,i1=   37   38   37   38 ; Wght=  0.5500000000  0.4500000000
 cg2d: Sum(rhs),rhsMax =  -1.40687461680500E-12  8.10426742753876E-04
(PID.TID 0000.0001)      cg2d_init_res =   1.44317996770017E+00
(PID.TID 0000.0001)      cg2d_iters(min,last) =      -1      35
(PID.TID 0000.0001)      cg2d_last_res =   9.63834321080063E-08
(PID.TID 0000.0001) // =======================================================
(PID.TID 0000.0001) // Begin MONITOR dynamic field statistics
(PID.TID 0000.0001) // =======================================================
(PID.TID 0000.0001) %MON time_tsnumber                =                   740
(PID.TID 0000.0001) %MON time_secondsf                =   4.4400000000000E+04
(PID.TID 0000.0001) %MON dynstat_eta_max              =   7.2066358319007E-04
(PID.TID 0000.0001) %MON dynstat_eta_min              =  -5.3549620224124E-04
(PID.TID 0000.0001) %MON dynstat_eta_mean             =   1.5535923621472E-19
(PID.TID 0000.0001) %MON dynstat_eta_sd               =   3.8207062139911E-04
(PID.TID 0000.0001) %MON dynstat_eta_del2             =   9.2165557700190E-09
(PID.TID 0000.0001) %MON dynstat_uvel_max             =   4.5437124802009E-02
(PID.TID 0000.0001) %MON dynstat_uvel_min             =  -7.6073209975468E-03
(PID.TID 0000.0001) %MON dynstat_uvel_mean            =   4.1173654954305E-05
(PID.TID 0000.0001) %MON dynstat_uvel_sd              =   1.5256891836968E-03
(PID.TID 0000.0001) %MON dynstat_uvel_del2            =   1.2613654148862E-07
(PID.TID 0000.0001) %MON dynstat_vvel_max             =   8.3770392022259E-02
(PID.TID 0000.0001) %MON dynstat_vvel_min             =  -1.2413714708622E-02
(PID.TID 0000.0001) %MON dynstat_vvel_mean            =  -4.5231164631973E-05
(PID.TID 0000.0001) %MON dynstat_vvel_sd              =   3.3516056201094E-03
(PID.TID 0000.0001) %MON dynstat_vvel_del2            =   1.3938436552577E-07
(PID.TID 0000.0001) %MON dynstat_wvel_max             =   1.0554926364598E-05
(PID.TID 0000.0001) %MON dynstat_wvel_min             =  -2.5343218358027E-05
(PID.TID 0000.0001) %MON dynstat_wvel_mean            =  -1.6313369778384E-07
(PID.TID 0000.0001) %MON dynstat_wvel_sd              =   1.1914454220749E-06
(PID.TID 0000.0001) %MON dynstat_wvel_del2            =   5.9088528522596E-10
(PID.TID 0000.0001) %MON dynstat_theta_max            =   1.6578996311605E+01
(PID.TID 0000.0001) %MON dynstat_theta_min            =   4.1845986364526E+00
(PID.TID 0000.0001) %MON dynstat_theta_mean           =   7.5988684042111E+00
(PID.TID 0000.0001) %MON dynstat_theta_sd             =   3.5908773727850E+00
(PID.TID 0000.0001) %MON dynstat_theta_del2           =   3.1593342538413E-08
(PID.TID 0000.0001) %MON dynstat_salt_max             =   3.4476099659272E+01
(PID.TID 0000.0001) %MON dynstat_salt_min             =   3.3629999999995E+01
(PID.TID 0000.0001) %MON dynstat_salt_mean            =   3.4188927711886E+01
(PID.TID 0000.0001) %MON dynstat_salt_sd              =   2.7007145980047E-01
(PID.TID 0000.0001) %MON dynstat_salt_del2            =   1.1972965049638E-09
(PID.TID 0000.0001) %MON trAdv_CFL_u_max              =   1.2748790401386E-03
(PID.TID 0000.0001) %MON trAdv_CFL_v_max              =   2.5213513107022E-03
(PID.TID 0000.0001) %MON trAdv_CFL_w_max              =   6.8939273012960E-04
(PID.TID 0000.0001) %MON advcfl_uvel_max              =   1.3602570797575E-03
(PID.TID 0000.0001) %MON advcfl_vvel_max              =   2.5013553903332E-03
(PID.TID 0000.0001) %MON advcfl_wvel_max              =   6.6112743542679E-04
(PID.TID 0000.0001) %MON advcfl_W_hf_max              =   6.9117868249164E-04
(PID.TID 0000.0001) %MON pe_b_mean                    =   7.4797396015144E-10
(PID.TID 0000.0001) %MON ke_max                       =   4.5040015246851E-03
(PID.TID 0000.0001) %MON ke_mean                      =   6.7677558669114E-06
(PID.TID 0000.0001) %MON ke_vol                       =   8.2635254160858E+14
(PID.TID 0000.0001) %MON vort_r_min                   =  -8.1325289356203E-06
(PID.TID 0000.0001) %MON vort_r_max                   =   7.7749342203607E-06
(PID.TID 0000.0001) %MON vort_a_mean                  =   6.9142466381008E-04
(PID.TID 0000.0001) %MON vort_a_sd                    =   1.4198408890999E-06
(PID.TID 0000.0001) %MON vort_p_mean                  =   6.9569812303954E-04
(PID.TID 0000.0001) %MON vort_p_sd                    =   9.4065930814668E-05
(PID.TID 0000.0001) %MON surfExpan_theta_mean         =  -3.8034325543520E-14
(PID.TID 0000.0001) %MON surfExpan_salt_mean          =   3.0343600823188E-21
(PID.TID 0000.0001) // =======================================================
(PID.TID 0000.0001) // End MONITOR dynamic field statistics
(PID.TID 0000.0001) // =======================================================
(PID.TID 0000.0001) // =======================================================
(PID.TID 0000.0001) // Begin OBCS MONITOR field statistics
(PID.TID 0000.0001) // =======================================================
(PID.TID 0000.0001) %MON obc_S_vVel_max               =   8.3770392022259E-02
(PID.TID 0000.0001) %MON obc_S_vVel_min               =  -4.2258522975240E-04
(PID.TID 0000.0001) %MON obc_S_vVel_mean              =  -6.3850508442847E-20
(PID.TID 0000.0001) %MON obc_S_vVel_sd                =   3.7619609604122E-03
(PID.TID 0000.0001) %MON obc_S_vVel_Int               =  -1.0841816333595E-10
(PID.TID 0000.0001) // =======================================================
(PID.TID 0000.0001) // End OBCS MONITOR field statistics
(PID.TID 0000.0001) // =======================================================
 EXTERNAL_FIELDS_LOAD,       740 : iP,iLd,i0,i1=   37   38   37   38 ; Wght=  0.5000000000  0.5000000000
 cg2d: Sum(rhs),rhsMax =  -1.43529632623540E-12  7.63474260183136E-04
 EXTERNAL_FIELDS_LOAD,       741 : iP,iLd,i0,i1=   37   38   37   38 ; Wght=  0.4500000000  0.5500000000
 cg2d: Sum(rhs),rhsMax =  -7.10542735760100E-14  7.13681079710442E-04
 EXTERNAL_FIELDS_LOAD,       742 : iP,iLd,i0,i1=   37   38   37   38 ; Wght=  0.4000000000  0.6000000000
 cg2d: Sum(rhs),rhsMax =  -7.38964445190504E-13  6.61134157910332E-04
 EXTERNAL_FIELDS_LOAD,       743 : iP,iLd,i0,i1=   37   38   37   38 ; Wght=  0.3500000000  0.6500000000
 cg2d: Sum(rhs),rhsMax =  -1.67688085639384E-12  6.05931919919365E-04
 EXTERNAL_FIELDS_LOAD,       744 : iP,iLd,i0,i1=   37   38   37   38 ; Wght=  0.3000000000  0.7000000000
 cg2d: Sum(rhs),rhsMax =  -1.37845290737459E-12  5.62055167001250E-04
 EXTERNAL_FIELDS_LOAD,       745 : iP,iLd,i0,i1=   37   38   37   38 ; Wght=  0.2500000000  0.7500000000
 cg2d: Sum(rhs),rhsMax =  -3.79429820895893E-12  5.20173315604569E-04
 EXTERNAL_FIELDS_LOAD,       746 : iP,iLd,i0,i1=   37   38   37   38 ; Wght=  0.2000000000  0.8000000000
 cg2d: Sum(rhs),rhsMax =  -4.94537744089030E-12  4.76551821938449E-04
 EXTERNAL_FIELDS_LOAD,       747 : iP,iLd,i0,i1=   37   38   37   38 ; Wght=  0.1500000000  0.8500000000
 cg2d: Sum(rhs),rhsMax =  -2.74269496003399E-12  4.31299924992250E-04
 EXTERNAL_FIELDS_LOAD,       748 : iP,iLd,i0,i1=   37   38   37   38 ; Wght=  0.1000000000  0.9000000000
 cg2d: Sum(rhs),rhsMax =  -3.79429820895893E-12  3.84534237623779E-04
 EXTERNAL_FIELDS_LOAD,       749 : iP,iLd,i0,i1=   37   38   37   38 ; Wght=  0.0500000000  0.9500000000
 cg2d: Sum(rhs),rhsMax =  -4.97379915032070E-12  3.40208904673057E-04
 EXTERNAL_FIELDS_LOAD,       750 : iP,iLd,i0,i1=   37   38   38   39 ; Wght=  1.0000000000  0.0000000000
 EXTERNAL_FIELDS_LOAD, it=       750 : Reading new data, i0,i1=   38   39 (prev=   37   38 )
(PID.TID 0000.0001)  MDS_READ_FIELD: opening global file: ../input/merid_halfgauss2p5hr_272x320.bin
(PID.TID 0000.0001)  MDS_READ_FIELD: opening global file: ../input/merid_halfgauss2p5hr_272x320.bin
 cg2d: Sum(rhs),rhsMax =  -6.19593265582807E-12  3.02107341902015E-04
 EXTERNAL_FIELDS_LOAD,       751 : iP,iLd,i0,i1=   38   39   38   39 ; Wght=  0.9500000000  0.0500000000
 cg2d: Sum(rhs),rhsMax =  -5.98276983510004E-12  2.63019242429669E-04
 EXTERNAL_FIELDS_LOAD,       752 : iP,iLd,i0,i1=   38   39   38   39 ; Wght=  0.9000000000  0.1000000000
 cg2d: Sum(rhs),rhsMax =  -7.23332505003782E-12  2.23051805397590E-04
 EXTERNAL_FIELDS_LOAD,       753 : iP,iLd,i0,i1=   38   39   38   39 ; Wght=  0.8500000000  0.1500000000
 cg2d: Sum(rhs),rhsMax =  -8.81072992342524E-12  1.82316678937292E-04
 EXTERNAL_FIELDS_LOAD,       754 : iP,iLd,i0,i1=   38   39   38   39 ; Wght=  0.8000000000  0.2000000000
 cg2d: Sum(rhs),rhsMax =  -1.13118403533008E-11  1.40929745034643E-04
 EXTERNAL_FIELDS_LOAD,       755 : iP,iLd,i0,i1=   38   39   38   39 ; Wght=  0.7500000000  0.2500000000
 cg2d: Sum(rhs),rhsMax =  -7.53885842641466E-12  2.12590231737252E-04
 EXTERNAL_FIELDS_LOAD,       756 : iP,iLd,i0,i1=   38   39   38   39 ; Wght=  0.7000000000  0.3000000000
 cg2d: Sum(rhs),rhsMax =  -5.39657207809796E-12  2.88400026024188E-04
 EXTERNAL_FIELDS_LOAD,       757 : iP,iLd,i0,i1=   38   39   38   39 ; Wght=  0.6500000000  0.3500000000
 cg2d: Sum(rhs),rhsMax =  -4.37694325228222E-12  3.64403085044716E-04
 EXTERNAL_FIELDS_LOAD,       758 : iP,iLd,i0,i1=   38   39   38   39 ; Wght=  0.6000000000  0.4000000000
 cg2d: Sum(rhs),rhsMax =  -4.36273239756702E-12  4.40370712214810E-04
 EXTERNAL_FIELDS_LOAD,       759 : iP,iLd,i0,i1=   38   39   38   39 ; Wght=  0.5500000000  0.4500000000
 cg2d: Sum(rhs),rhsMax =  -2.57927013080916E-12  5.16068466790725E-04
(PID.TID 0000.0001)      cg2d_init_res =   3.37993590207571E+00
(PID.TID 0000.0001)      cg2d_iters(min,last) =      -1      38
(PID.TID 0000.0001)      cg2d_last_res =   6.27996336720117E-08
(PID.TID 0000.0001) // =======================================================
(PID.TID 0000.0001) // Begin MONITOR dynamic field statistics
(PID.TID 0000.0001) // =======================================================
(PID.TID 0000.0001) %MON time_tsnumber                =                   760
(PID.TID 0000.0001) %MON time_secondsf                =   4.5600000000000E+04
(PID.TID 0000.0001) %MON dynstat_eta_max              =   1.9626634280069E-04
(PID.TID 0000.0001) %MON dynstat_eta_min              =  -4.4993683232355E-04
(PID.TID 0000.0001) %MON dynstat_eta_mean             =   2.2332890205867E-19
(PID.TID 0000.0001) %MON dynstat_eta_sd               =   1.2468038028018E-04
(PID.TID 0000.0001) %MON dynstat_eta_del2             =   5.5580881807623E-08
(PID.TID 0000.0001) %MON dynstat_uvel_max             =   8.7343381054021E-02
(PID.TID 0000.0001) %MON dynstat_uvel_min             =  -8.8488925245097E-03
(PID.TID 0000.0001) %MON dynstat_uvel_mean            =  -1.1338961593097E-05
(PID.TID 0000.0001) %MON dynstat_uvel_sd              =   3.4798085570857E-03
(PID.TID 0000.0001) %MON dynstat_uvel_del2            =   1.3227041194504E-07
(PID.TID 0000.0001) %MON dynstat_vvel_max             =   4.3590798079078E-02
(PID.TID 0000.0001) %MON dynstat_vvel_min             =  -9.2216480273762E-03
(PID.TID 0000.0001) %MON dynstat_vvel_mean            =  -6.8030189695159E-05
(PID.TID 0000.0001) %MON dynstat_vvel_sd              =   1.1649332035647E-03
(PID.TID 0000.0001) %MON dynstat_vvel_del2            =   1.3258096705317E-07
(PID.TID 0000.0001) %MON dynstat_wvel_max             =   1.2654145190865E-05
(PID.TID 0000.0001) %MON dynstat_wvel_min             =  -1.7673566081213E-05
(PID.TID 0000.0001) %MON dynstat_wvel_mean            =  -8.9241207258226E-08
(PID.TID 0000.0001) %MON dynstat_wvel_sd              =   7.3057587959942E-07
(PID.TID 0000.0001) %MON dynstat_wvel_del2            =   5.3124681720496E-10
(PID.TID 0000.0001) %MON dynstat_theta_max            =   1.6578999736401E+01
(PID.TID 0000.0001) %MON dynstat_theta_min            =   4.1845994513506E+00
(PID.TID 0000.0001) %MON dynstat_theta_mean           =   7.5988711875661E+00
(PID.TID 0000.0001) %MON dynstat_theta_sd             =   3.5908791127715E+00
(PID.TID 0000.0001) %MON dynstat_theta_del2           =   3.3642906930413E-08
(PID.TID 0000.0001) %MON dynstat_salt_max             =   3.4476099576214E+01
(PID.TID 0000.0001) %MON dynstat_salt_min             =   3.3629999999995E+01
(PID.TID 0000.0001) %MON dynstat_salt_mean            =   3.4188927541523E+01
(PID.TID 0000.0001) %MON dynstat_salt_sd              =   2.7007153342924E-01
(PID.TID 0000.0001) %MON dynstat_salt_del2            =   1.3963257446832E-09
(PID.TID 0000.0001) %MON trAdv_CFL_u_max              =   2.5922316957700E-03
(PID.TID 0000.0001) %MON trAdv_CFL_v_max              =   1.3914174156584E-03
(PID.TID 0000.0001) %MON trAdv_CFL_w_max              =   5.0248073885970E-04
(PID.TID 0000.0001) %MON advcfl_uvel_max              =   2.6148100946752E-03
(PID.TID 0000.0001) %MON advcfl_vvel_max              =   1.3016063923284E-03
(PID.TID 0000.0001) %MON advcfl_wvel_max              =   4.6104954994469E-04
(PID.TID 0000.0001) %MON advcfl_W_hf_max              =   4.8200634766945E-04
(PID.TID 0000.0001) %MON pe_b_mean                    =   7.9651769021003E-11
(PID.TID 0000.0001) %MON ke_max                       =   5.9732540825360E-03
(PID.TID 0000.0001) %MON ke_mean                      =   6.7314885082204E-06
(PID.TID 0000.0001) %MON ke_vol                       =   8.2635254160858E+14
(PID.TID 0000.0001) %MON vort_r_min                   =  -3.6207219519818E-05
(PID.TID 0000.0001) %MON vort_r_max                   =   9.8394520850691E-06
(PID.TID 0000.0001) %MON vort_a_mean                  =   6.9142466381008E-04
(PID.TID 0000.0001) %MON vort_a_sd                    =   1.4236978004270E-06
(PID.TID 0000.0001) %MON vort_p_mean                  =   6.9569812303954E-04
(PID.TID 0000.0001) %MON vort_p_sd                    =   9.4061675008605E-05
(PID.TID 0000.0001) %MON surfExpan_theta_mean         =  -1.0480872540718E-12
(PID.TID 0000.0001) %MON surfExpan_salt_mean          =  -2.2251973937005E-21
(PID.TID 0000.0001) // =======================================================
(PID.TID 0000.0001) // End MONITOR dynamic field statistics
(PID.TID 0000.0001) // =======================================================
(PID.TID 0000.0001) // =======================================================
(PID.TID 0000.0001) // Begin OBCS MONITOR field statistics
(PID.TID 0000.0001) // =======================================================
(PID.TID 0000.0001) %MON obc_S_vVel_max               =   4.3590798079078E-02
(PID.TID 0000.0001) %MON obc_S_vVel_min               =  -2.4450447043463E-04
(PID.TID 0000.0001) %MON obc_S_vVel_mean              =   1.6303147812258E-20
(PID.TID 0000.0001) %MON obc_S_vVel_sd                =   1.9582389190577E-03
(PID.TID 0000.0001) %MON obc_S_vVel_Int               =   2.7682744985214E-11
(PID.TID 0000.0001) // =======================================================
(PID.TID 0000.0001) // End OBCS MONITOR field statistics
(PID.TID 0000.0001) // =======================================================
 EXTERNAL_FIELDS_LOAD,       760 : iP,iLd,i0,i1=   38   39   38   39 ; Wght=  0.5000000000  0.5000000000
 cg2d: Sum(rhs),rhsMax =  -2.77822209682199E-12  5.91254532303656E-04
 EXTERNAL_FIELDS_LOAD,       761 : iP,iLd,i0,i1=   38   39   38   39 ; Wght=  0.4500000000  0.5500000000
 cg2d: Sum(rhs),rhsMax =  -2.58637555816676E-12  6.65689529899991E-04
 EXTERNAL_FIELDS_LOAD,       762 : iP,iLd,i0,i1=   38   39   38   39 ; Wght=  0.4000000000  0.6000000000
 cg2d: Sum(rhs),rhsMax =  -2.75690581474919E-12  7.39133551413112E-04
 EXTERNAL_FIELDS_LOAD,       763 : iP,iLd,i0,i1=   38   39   38   39 ; Wght=  0.3500000000  0.6500000000
 cg2d: Sum(rhs),rhsMax =  -1.84741111297626E-12  8.11347134045026E-04
 EXTERNAL_FIELDS_LOAD,       764 : iP,iLd,i0,i1=   38   39   38   39 ; Wght=  0.3000000000  0.7000000000
 cg2d: Sum(rhs),rhsMax =  -2.08899564313469E-12  8.82092240819584E-04
 EXTERNAL_FIELDS_LOAD,       765 : iP,iLd,i0,i1=   38   39   38   39 ; Wght=  0.2500000000  0.7500000000
 cg2d: Sum(rhs),rhsMax =  -2.02504679691629E-12  9.51133242877573E-04
 EXTERNAL_FIELDS_LOAD,       766 : iP,iLd,i0,i1=   38   39   38   39 ; Wght=  0.2000000000  0.8000000000
 cg2d: Sum(rhs),rhsMax =  -1.99662508748588E-12  1.01823790048235E-03
 EXTERNAL_FIELDS_LOAD,       767 : iP,iLd,i0,i1=   38   39   38   39 ; Wght=  0.1500000000  0.8500000000
 cg2d: Sum(rhs),rhsMax =  -1.79056769411545E-12  1.08317833918913E-03
 EXTERNAL_FIELDS_LOAD,       768 : iP,iLd,i0,i1=   38   39   38   39 ; Wght=  0.1000000000  0.9000000000
 cg2d: Sum(rhs),rhsMax =  -1.20792265079217E-12  1.14573201820283E-03
 EXTERNAL_FIELDS_LOAD,       769 : iP,iLd,i0,i1=   38   39   38   39 ; Wght=  0.0500000000  0.9500000000
 cg2d: Sum(rhs),rhsMax =  -1.36424205265939E-12  1.20568268784030E-03
 EXTERNAL_FIELDS_LOAD,       770 : iP,iLd,i0,i1=   38   39   39   40 ; Wght=  1.0000000000  0.0000000000
 EXTERNAL_FIELDS_LOAD, it=       770 : Reading new data, i0,i1=   39   40 (prev=   38   39 )
(PID.TID 0000.0001)  MDS_READ_FIELD: opening global file: ../input/merid_halfgauss2p5hr_272x320.bin
(PID.TID 0000.0001)  MDS_READ_FIELD: opening global file: ../input/merid_halfgauss2p5hr_272x320.bin
 cg2d: Sum(rhs),rhsMax =  -1.59161572810262E-12  1.26282133339781E-03
 EXTERNAL_FIELDS_LOAD,       771 : iP,iLd,i0,i1=   39   40   39   40 ; Wght=  0.9500000000  0.0500000000
 cg2d: Sum(rhs),rhsMax =  -1.19371179607697E-12  1.31694710189820E-03
 EXTERNAL_FIELDS_LOAD,       772 : iP,iLd,i0,i1=   39   40   39   40 ; Wght=  0.9000000000  0.1000000000
 cg2d: Sum(rhs),rhsMax =  -1.35003119794419E-12  1.36786820912279E-03
 EXTERNAL_FIELDS_LOAD,       773 : iP,iLd,i0,i1=   39   40   39   40 ; Wght=  0.8500000000  0.1500000000
 cg2d: Sum(rhs),rhsMax =  -1.17950094136177E-12  1.41540282357468E-03
 EXTERNAL_FIELDS_LOAD,       774 : iP,iLd,i0,i1=   39   40   39   40 ; Wght=  0.8000000000  0.2000000000
 cg2d: Sum(rhs),rhsMax =  -1.15107923193136E-12  1.45937992359391E-03
 EXTERNAL_FIELDS_LOAD,       775 : iP,iLd,i0,i1=   39   40   39   40 ; Wght=  0.7500000000  0.2500000000
 cg2d: Sum(rhs),rhsMax =  -1.08002495835535E-12  1.49964012477181E-03
 EXTERNAL_FIELDS_LOAD,       776 : iP,iLd,i0,i1=   39   40   39   40 ; Wght=  0.7000000000  0.3000000000
 cg2d: Sum(rhs),rhsMax =  -1.17950094136177E-12  1.53603647305194E-03
 EXTERNAL_FIELDS_LOAD,       777 : iP,iLd,i0,i1=   39   40   39   40 ; Wght=  0.6500000000  0.3500000000
 cg2d: Sum(rhs),rhsMax =  -2.13162820728030E-12  1.56843519957710E-03
 EXTERNAL_FIELDS_LOAD,       778 : iP,iLd,i0,i1=   39   40   39   40 ; Wght=  0.6000000000  0.4000000000
 cg2d: Sum(rhs),rhsMax =  -1.64845914696343E-12  1.59671643330478E-03
 EXTERNAL_FIELDS_LOAD,       779 : iP,iLd,i0,i1=   39   40   39   40 ; Wght=  0.5500000000  0.4500000000
 cg2d: Sum(rhs),rhsMax =  -1.42108547152020E-12  1.62077486572722E-03
(PID.TID 0000.0001)      cg2d_init_res =   2.63265540978560E-01
(PID.TID 0000.0001)      cg2d_iters(min,last) =      -1      33
(PID.TID 0000.0001)      cg2d_last_res =   6.03495478450497E-08
(PID.TID 0000.0001) // =======================================================
(PID.TID 0000.0001) // Begin MONITOR dynamic field statistics
(PID.TID 0000.0001) // =======================================================
(PID.TID 0000.0001) %MON time_tsnumber                =                   780
(PID.TID 0000.0001) %MON time_secondsf                =   4.6800000000000E+04
(PID.TID 0000.0001) %MON dynstat_eta_max              =   6.8032697582088E-04
(PID.TID 0000.0001) %MON dynstat_eta_min              =  -1.4247088006475E-03
(PID.TID 0000.0001) %MON dynstat_eta_mean             =   2.4382769017033E-19
(PID.TID 0000.0001) %MON dynstat_eta_sd               =   4.8092736442524E-04
(PID.TID 0000.0001) %MON dynstat_eta_del2             =   1.0367449866959E-07
(PID.TID 0000.0001) %MON dynstat_uvel_max             =   8.1267537500694E-02
(PID.TID 0000.0001) %MON dynstat_uvel_min             =  -1.0957136884469E-02
(PID.TID 0000.0001) %MON dynstat_uvel_mean            =  -5.0271466186058E-05
(PID.TID 0000.0001) %MON dynstat_uvel_sd              =   3.1807416306508E-03
(PID.TID 0000.0001) %MON dynstat_uvel_del2            =   1.4386061918174E-07
(PID.TID 0000.0001) %MON dynstat_vvel_max             =   7.4955815129060E-03
(PID.TID 0000.0001) %MON dynstat_vvel_min             =  -5.2054137908625E-02
(PID.TID 0000.0001) %MON dynstat_vvel_mean            =  -1.6093317419484E-05
(PID.TID 0000.0001) %MON dynstat_vvel_sd              =   1.8076856716440E-03
(PID.TID 0000.0001) %MON dynstat_vvel_del2            =   1.1695589779774E-07
(PID.TID 0000.0001) %MON dynstat_wvel_max             =   1.6712295164833E-05
(PID.TID 0000.0001) %MON dynstat_wvel_min             =  -6.0354634489610E-06
(PID.TID 0000.0001) %MON dynstat_wvel_mean            =   4.2162156237902E-08
(PID.TID 0000.0001) %MON dynstat_wvel_sd              =   8.2348316449222E-07
(PID.TID 0000.0001) %MON dynstat_wvel_del2            =   5.9009391442039E-10
(PID.TID 0000.0001) %MON dynstat_theta_max            =   1.6578988636443E+01
(PID.TID 0000.0001) %MON dynstat_theta_min            =   4.1845995600247E+00
(PID.TID 0000.0001) %MON dynstat_theta_mean           =   7.5988716420716E+00
(PID.TID 0000.0001) %MON dynstat_theta_sd             =   3.5908782766083E+00
(PID.TID 0000.0001) %MON dynstat_theta_del2           =   2.3452913172116E-08
(PID.TID 0000.0001) %MON dynstat_salt_max             =   3.4476099565138E+01
(PID.TID 0000.0001) %MON dynstat_salt_min             =   3.3629999999994E+01
(PID.TID 0000.0001) %MON dynstat_salt_mean            =   3.4188927511705E+01
(PID.TID 0000.0001) %MON dynstat_salt_sd              =   2.7007149029897E-01
(PID.TID 0000.0001) %MON dynstat_salt_del2            =   9.6371210085383E-10
(PID.TID 0000.0001) %MON trAdv_CFL_u_max              =   2.4954378089823E-03
(PID.TID 0000.0001) %MON trAdv_CFL_v_max              =   1.4662402700432E-03
(PID.TID 0000.0001) %MON trAdv_CFL_w_max              =   4.1064212374976E-04
(PID.TID 0000.0001) %MON advcfl_uvel_max              =   2.4640898220612E-03
(PID.TID 0000.0001) %MON advcfl_vvel_max              =   1.5543188387168E-03
(PID.TID 0000.0001) %MON advcfl_wvel_max              =   4.3591257135764E-04
(PID.TID 0000.0001) %MON advcfl_W_hf_max              =   4.5572677914663E-04
(PID.TID 0000.0001) %MON pe_b_mean                    =   1.1851086469256E-09
(PID.TID 0000.0001) %MON ke_max                       =   5.5712972982380E-03
(PID.TID 0000.0001) %MON ke_mean                      =   6.6925526116465E-06
(PID.TID 0000.0001) %MON ke_vol                       =   8.2635254160858E+14
(PID.TID 0000.0001) %MON vort_r_min                   =  -4.0962126462745E-05
(PID.TID 0000.0001) %MON vort_r_max                   =   1.0532912282077E-05
(PID.TID 0000.0001) %MON vort_a_mean                  =   6.9142466381008E-04
(PID.TID 0000.0001) %MON vort_a_sd                    =   1.4245852829716E-06
(PID.TID 0000.0001) %MON vort_p_mean                  =   6.9569812303954E-04
(PID.TID 0000.0001) %MON vort_p_sd                    =   9.4059784656551E-05
(PID.TID 0000.0001) %MON surfExpan_theta_mean         =  -3.8444644684055E-13
(PID.TID 0000.0001) %MON surfExpan_salt_mean          =   3.5063716506796E-21
(PID.TID 0000.0001) // =======================================================
(PID.TID 0000.0001) // End MONITOR dynamic field statistics
(PID.TID 0000.0001) // =======================================================
(PID.TID 0000.0001) // =======================================================
(PID.TID 0000.0001) // Begin OBCS MONITOR field statistics
(PID.TID 0000.0001) // =======================================================
(PID.TID 0000.0001) %MON obc_S_vVel_max               =   1.2901108156432E-04
(PID.TID 0000.0001) %MON obc_S_vVel_min               =  -2.4623296322517E-02
(PID.TID 0000.0001) %MON obc_S_vVel_mean              =   5.4046022990045E-20
(PID.TID 0000.0001) %MON obc_S_vVel_sd                =   1.1061019179616E-03
(PID.TID 0000.0001) %MON obc_S_vVel_Int               =   9.1770147037096E-11
(PID.TID 0000.0001) // =======================================================
(PID.TID 0000.0001) // End OBCS MONITOR field statistics
(PID.TID 0000.0001) // =======================================================
 EXTERNAL_FIELDS_LOAD,       780 : iP,iLd,i0,i1=   39   40   39   40 ; Wght=  0.5000000000  0.5000000000
 cg2d: Sum(rhs),rhsMax =  -1.93267624126747E-12  1.64052036368831E-03
 EXTERNAL_FIELDS_LOAD,       781 : iP,iLd,i0,i1=   39   40   39   40 ; Wght=  0.4500000000  0.5500000000
 cg2d: Sum(rhs),rhsMax =  -7.38964445190504E-13  1.65588058483517E-03
 EXTERNAL_FIELDS_LOAD,       782 : iP,iLd,i0,i1=   39   40   39   40 ; Wght=  0.4000000000  0.6000000000
 cg2d: Sum(rhs),rhsMax =  -5.82645043323282E-13  1.66681644981087E-03
 EXTERNAL_FIELDS_LOAD,       783 : iP,iLd,i0,i1=   39   40   39   40 ; Wght=  0.3500000000  0.6500000000
 cg2d: Sum(rhs),rhsMax =  -1.19371179607697E-12  1.67326541068137E-03
 EXTERNAL_FIELDS_LOAD,       784 : iP,iLd,i0,i1=   39   40   39   40 ; Wght=  0.3000000000  0.7000000000
 cg2d: Sum(rhs),rhsMax =  -8.66862137627322E-13  1.67520259008437E-03
 EXTERNAL_FIELDS_LOAD,       785 : iP,iLd,i0,i1=   39   40   39   40 ; Wght=  0.2500000000  0.7500000000
 cg2d: Sum(rhs),rhsMax =  -1.40687461680500E-12  1.67262038922396E-03
 EXTERNAL_FIELDS_LOAD,       786 : iP,iLd,i0,i1=   39   40   39   40 ; Wght=  0.2000000000  0.8000000000
 cg2d: Sum(rhs),rhsMax =  -1.67688085639384E-12  1.66552868423498E-03
 EXTERNAL_FIELDS_LOAD,       787 : iP,iLd,i0,i1=   39   40   39   40 ; Wght=  0.1500000000  0.8500000000
 cg2d: Sum(rhs),rhsMax =  -2.84217094304040E-14  1.65395493425072E-03
 EXTERNAL_FIELDS_LOAD,       788 : iP,iLd,i0,i1=   39   40   39   40 ; Wght=  0.1000000000  0.9000000000
 cg2d: Sum(rhs),rhsMax =  -9.52127265918534E-13  1.63794419685191E-03
 EXTERNAL_FIELDS_LOAD,       789 : iP,iLd,i0,i1=   39   40   39   40 ; Wght=  0.0500000000  0.9500000000
 cg2d: Sum(rhs),rhsMax =  -2.03215222427389E-12  1.61755904736045E-03
 EXTERNAL_FIELDS_LOAD,       790 : iP,iLd,i0,i1=   39   40   40   41 ; Wght=  1.0000000000  0.0000000000
 EXTERNAL_FIELDS_LOAD, it=       790 : Reading new data, i0,i1=   40   41 (prev=   39   40 )
(PID.TID 0000.0001)  MDS_READ_FIELD: opening global file: ../input/merid_halfgauss2p5hr_272x320.bin
(PID.TID 0000.0001)  MDS_READ_FIELD: opening global file: ../input/merid_halfgauss2p5hr_272x320.bin
 cg2d: Sum(rhs),rhsMax =  -4.40536496171262E-13  1.59287939837837E-03
 EXTERNAL_FIELDS_LOAD,       791 : iP,iLd,i0,i1=   40   41   40   41 ; Wght=  0.9500000000  0.0500000000
 cg2d: Sum(rhs),rhsMax =  -7.81597009336110E-13  1.56400221737326E-03
 EXTERNAL_FIELDS_LOAD,       792 : iP,iLd,i0,i1=   40   41   40   41 ; Wght=  0.9000000000  0.1000000000
 cg2d: Sum(rhs),rhsMax =  -3.55271367880050E-13  1.53104114160782E-03
 EXTERNAL_FIELDS_LOAD,       793 : iP,iLd,i0,i1=   40   41   40   41 ; Wght=  0.8500000000  0.1500000000
 cg2d: Sum(rhs),rhsMax =  -7.10542735760100E-13  1.49412598909028E-03
 EXTERNAL_FIELDS_LOAD,       794 : iP,iLd,i0,i1=   40   41   40   41 ; Wght=  0.8000000000  0.2000000000
 cg2d: Sum(rhs),rhsMax =  -1.36424205265939E-12  1.45340216700106E-03
 EXTERNAL_FIELDS_LOAD,       795 : iP,iLd,i0,i1=   40   41   40   41 ; Wght=  0.7500000000  0.2500000000
 cg2d: Sum(rhs),rhsMax =  -9.37916411203332E-13  1.40902997833293E-03
 EXTERNAL_FIELDS_LOAD,       796 : iP,iLd,i0,i1=   40   41   40   41 ; Wght=  0.7000000000  0.3000000000
 cg2d: Sum(rhs),rhsMax =  -9.94759830064140E-13  1.36118383041749E-03
 EXTERNAL_FIELDS_LOAD,       797 : iP,iLd,i0,i1=   40   41   40   41 ; Wght=  0.6500000000  0.3500000000
 cg2d: Sum(rhs),rhsMax =  -1.36424205265939E-12  1.31005134901525E-03
 EXTERNAL_FIELDS_LOAD,       798 : iP,iLd,i0,i1=   40   41   40   41 ; Wght=  0.6000000000  0.4000000000
 cg2d: Sum(rhs),rhsMax =  -8.38440428196918E-13  1.25583240330333E-03
 EXTERNAL_FIELDS_LOAD,       799 : iP,iLd,i0,i1=   40   41   40   41 ; Wght=  0.5500000000  0.4500000000
 cg2d: Sum(rhs),rhsMax =  -1.74793512996985E-12  1.19873804764674E-03
(PID.TID 0000.0001)      cg2d_init_res =   1.11449891033307E+00
(PID.TID 0000.0001)      cg2d_iters(min,last) =      -1      35
(PID.TID 0000.0001)      cg2d_last_res =   8.54294602751938E-08
(PID.TID 0000.0001) // =======================================================
(PID.TID 0000.0001) // Begin MONITOR dynamic field statistics
(PID.TID 0000.0001) // =======================================================
(PID.TID 0000.0001) %MON time_tsnumber                =                   800
(PID.TID 0000.0001) %MON time_secondsf                =   4.8000000000000E+04
(PID.TID 0000.0001) %MON dynstat_eta_max              =   4.1910978121343E-04
(PID.TID 0000.0001) %MON dynstat_eta_min              =  -1.0516634126543E-03
(PID.TID 0000.0001) %MON dynstat_eta_mean             =   2.7403643054542E-19
(PID.TID 0000.0001) %MON dynstat_eta_sd               =   3.0799702811853E-04
(PID.TID 0000.0001) %MON dynstat_eta_del2             =   9.2794030245402E-08
(PID.TID 0000.0001) %MON dynstat_uvel_max             =   3.5427354673033E-02
(PID.TID 0000.0001) %MON dynstat_uvel_min             =  -7.1909833856661E-03
(PID.TID 0000.0001) %MON dynstat_uvel_mean            =  -3.3323915854701E-05
(PID.TID 0000.0001) %MON dynstat_uvel_sd              =   8.5178759808728E-04
(PID.TID 0000.0001) %MON dynstat_uvel_del2            =   1.2916274047599E-07
(PID.TID 0000.0001) %MON dynstat_vvel_max             =   9.0747179250690E-03
(PID.TID 0000.0001) %MON dynstat_vvel_min             =  -8.7477242870515E-02
(PID.TID 0000.0001) %MON dynstat_vvel_mean            =   5.2221698663689E-05
(PID.TID 0000.0001) %MON dynstat_vvel_sd              =   3.5503597410096E-03
(PID.TID 0000.0001) %MON dynstat_vvel_del2            =   1.1570922925147E-07
(PID.TID 0000.0001) %MON dynstat_wvel_max             =   2.5827854076776E-05
(PID.TID 0000.0001) %MON dynstat_wvel_min             =  -7.6745371249883E-06
(PID.TID 0000.0001) %MON dynstat_wvel_mean            =   1.4639628364109E-07
(PID.TID 0000.0001) %MON dynstat_wvel_sd              =   1.3258711918960E-06
(PID.TID 0000.0001) %MON dynstat_wvel_del2            =   6.1747227366855E-10
(PID.TID 0000.0001) %MON dynstat_theta_max            =   1.6578936713826E+01
(PID.TID 0000.0001) %MON dynstat_theta_min            =   4.1845996685123E+00
(PID.TID 0000.0001) %MON dynstat_theta_mean           =   7.5988694708990E+00
(PID.TID 0000.0001) %MON dynstat_theta_sd             =   3.5908745870681E+00
(PID.TID 0000.0001) %MON dynstat_theta_del2           =   1.9464148296408E-08
(PID.TID 0000.0001) %MON dynstat_salt_max             =   3.4476099554080E+01
(PID.TID 0000.0001) %MON dynstat_salt_min             =   3.3629999999994E+01
(PID.TID 0000.0001) %MON dynstat_salt_mean            =   3.4188927641855E+01
(PID.TID 0000.0001) %MON dynstat_salt_sd              =   2.7007131732374E-01
(PID.TID 0000.0001) %MON dynstat_salt_del2            =   6.6980772539344E-10
(PID.TID 0000.0001) %MON trAdv_CFL_u_max              =   1.2574994104229E-03
(PID.TID 0000.0001) %MON trAdv_CFL_v_max              =   2.5969054355083E-03
(PID.TID 0000.0001) %MON trAdv_CFL_w_max              =   5.3797635379552E-04
(PID.TID 0000.0001) %MON advcfl_uvel_max              =   1.1614485131247E-03
(PID.TID 0000.0001) %MON advcfl_vvel_max              =   2.6120406948496E-03
(PID.TID 0000.0001) %MON advcfl_wvel_max              =   5.6848332880954E-04
(PID.TID 0000.0001) %MON advcfl_W_hf_max              =   5.9690749525001E-04
(PID.TID 0000.0001) %MON pe_b_mean                    =   4.8606263980108E-10
(PID.TID 0000.0001) %MON ke_max                       =   3.9892065356429E-03
(PID.TID 0000.0001) %MON ke_mean                      =   6.6549417213869E-06
(PID.TID 0000.0001) %MON ke_vol                       =   8.2635254160858E+14
(PID.TID 0000.0001) %MON vort_r_min                   =  -1.9307750861650E-05
(PID.TID 0000.0001) %MON vort_r_max                   =   5.8376148127760E-06
(PID.TID 0000.0001) %MON vort_a_mean                  =   6.9142466381008E-04
(PID.TID 0000.0001) %MON vort_a_sd                    =   1.4202410078762E-06
(PID.TID 0000.0001) %MON vort_p_mean                  =   6.9569812303954E-04
(PID.TID 0000.0001) %MON vort_p_sd                    =   9.4061601561196E-05
(PID.TID 0000.0001) %MON surfExpan_theta_mean         =   4.6887698879300E-13
(PID.TID 0000.0001) %MON surfExpan_salt_mean          =   8.7659291266989E-22
(PID.TID 0000.0001) // =======================================================
(PID.TID 0000.0001) // End MONITOR dynamic field statistics
(PID.TID 0000.0001) // =======================================================
(PID.TID 0000.0001) // =======================================================
(PID.TID 0000.0001) // Begin OBCS MONITOR field statistics
(PID.TID 0000.0001) // =======================================================
(PID.TID 0000.0001) %MON obc_S_vVel_max               =   3.7902924243041E-04
(PID.TID 0000.0001) %MON obc_S_vVel_min               =  -7.6734881813024E-02
(PID.TID 0000.0001) %MON obc_S_vVel_mean              =   1.9209761382687E-19
(PID.TID 0000.0001) %MON obc_S_vVel_sd                =   3.4484683610931E-03
(PID.TID 0000.0001) %MON obc_S_vVel_Int               =   3.2618174827803E-10
(PID.TID 0000.0001) // =======================================================
(PID.TID 0000.0001) // End OBCS MONITOR field statistics
(PID.TID 0000.0001) // =======================================================
 EXTERNAL_FIELDS_LOAD,       800 : iP,iLd,i0,i1=   40   41   40   41 ; Wght=  0.5000000000  0.5000000000
 cg2d: Sum(rhs),rhsMax =  -1.00186525742174E-12  1.13898938841364E-03
 EXTERNAL_FIELDS_LOAD,       801 : iP,iLd,i0,i1=   40   41   40   41 ; Wght=  0.4500000000  0.5500000000
 cg2d: Sum(rhs),rhsMax =  -1.96820337805548E-12  1.07681638356386E-03
 EXTERNAL_FIELDS_LOAD,       802 : iP,iLd,i0,i1=   40   41   40   41 ; Wght=  0.4000000000  0.6000000000
 cg2d: Sum(rhs),rhsMax =  -1.70530256582424E-12  1.01245658469977E-03
 EXTERNAL_FIELDS_LOAD,       803 : iP,iLd,i0,i1=   40   41   40   41 ; Wght=  0.3500000000  0.6500000000
 cg2d: Sum(rhs),rhsMax =  -2.28084218178992E-12  9.46153832110530E-04
 EXTERNAL_FIELDS_LOAD,       804 : iP,iLd,i0,i1=   40   41   40   41 ; Wght=  0.3000000000  0.7000000000
 cg2d: Sum(rhs),rhsMax =  -2.23110419028671E-12  8.78156913276051E-04
 EXTERNAL_FIELDS_LOAD,       805 : iP,iLd,i0,i1=   40   41   40   41 ; Wght=  0.2500000000  0.7500000000
 cg2d: Sum(rhs),rhsMax =  -2.64321897702757E-12  8.08718196962118E-04
 EXTERNAL_FIELDS_LOAD,       806 : iP,iLd,i0,i1=   40   41   40   41 ; Wght=  0.2000000000  0.8000000000
 cg2d: Sum(rhs),rhsMax =  -2.32347474593553E-12  7.38092254762584E-04
 EXTERNAL_FIELDS_LOAD,       807 : iP,iLd,i0,i1=   40   41   40   41 ; Wght=  0.1500000000  0.8500000000
 cg2d: Sum(rhs),rhsMax =  -2.45137243837235E-12  6.66534482521505E-04
 EXTERNAL_FIELDS_LOAD,       808 : iP,iLd,i0,i1=   40   41   40   41 ; Wght=  0.1000000000  0.9000000000
 cg2d: Sum(rhs),rhsMax =  -2.80664380625240E-12  5.94299733940216E-04
 EXTERNAL_FIELDS_LOAD,       809 : iP,iLd,i0,i1=   40   41   40   41 ; Wght=  0.0500000000  0.9500000000
 cg2d: Sum(rhs),rhsMax =  -3.35376171278767E-12  5.21640979124807E-04
 EXTERNAL_FIELDS_LOAD,       810 : iP,iLd,i0,i1=   40   41   41   42 ; Wght=  1.0000000000  0.0000000000
 EXTERNAL_FIELDS_LOAD, it=       810 : Reading new data, i0,i1=   41   42 (prev=   40   41 )
(PID.TID 0000.0001)  MDS_READ_FIELD: opening global file: ../input/merid_halfgauss2p5hr_272x320.bin
(PID.TID 0000.0001)  MDS_READ_FIELD: opening global file: ../input/merid_halfgauss2p5hr_272x320.bin
 cg2d: Sum(rhs),rhsMax =  -3.97193389289896E-12  4.48807999936509E-04
 EXTERNAL_FIELDS_LOAD,       811 : iP,iLd,i0,i1=   41   42   41   42 ; Wght=  0.9500000000  0.0500000000
 cg2d: Sum(rhs),rhsMax =  -4.57767157513445E-12  3.76046134138183E-04
 EXTERNAL_FIELDS_LOAD,       812 : iP,iLd,i0,i1=   41   42   41   42 ; Wght=  0.9000000000  0.1000000000
 cg2d: Sum(rhs),rhsMax =  -5.39213118599946E-12  3.03595079340887E-04
 EXTERNAL_FIELDS_LOAD,       813 : iP,iLd,i0,i1=   41   42   41   42 ; Wght=  0.8500000000  0.1500000000
 cg2d: Sum(rhs),rhsMax =  -7.58859641791787E-12  2.31695552138891E-04
 EXTERNAL_FIELDS_LOAD,       814 : iP,iLd,i0,i1=   41   42   41   42 ; Wght=  0.8000000000  0.2000000000
 cg2d: Sum(rhs),rhsMax =  -1.16813225758960E-11  1.60891746522257E-04
 EXTERNAL_FIELDS_LOAD,       815 : iP,iLd,i0,i1=   41   42   41   42 ; Wght=  0.7500000000  0.2500000000
 cg2d: Sum(rhs),rhsMax =  -7.30437932361383E-12  2.04737368314719E-04
 EXTERNAL_FIELDS_LOAD,       816 : iP,iLd,i0,i1=   41   42   41   42 ; Wght=  0.7000000000  0.3000000000
 cg2d: Sum(rhs),rhsMax =  -6.50857145956252E-12  2.47813227869451E-04
 EXTERNAL_FIELDS_LOAD,       817 : iP,iLd,i0,i1=   41   42   41   42 ; Wght=  0.6500000000  0.3500000000
 cg2d: Sum(rhs),rhsMax =  -6.70752342557535E-12  2.89979570763424E-04
 EXTERNAL_FIELDS_LOAD,       818 : iP,iLd,i0,i1=   41   42   41   42 ; Wght=  0.6000000000  0.4000000000
 cg2d: Sum(rhs),rhsMax =  -5.65592017665040E-12  3.31101222782435E-04
 EXTERNAL_FIELDS_LOAD,       819 : iP,iLd,i0,i1=   41   42   41   42 ; Wght=  0.5500000000  0.4500000000
 cg2d: Sum(rhs),rhsMax =  -3.92219590139575E-12  3.72215984258690E-04
(PID.TID 0000.0001)      cg2d_init_res =   4.23207131914788E+00
(PID.TID 0000.0001)      cg2d_iters(min,last) =      -1      38
(PID.TID 0000.0001)      cg2d_last_res =   7.99200275812347E-08
(PID.TID 0000.0001) // =======================================================
(PID.TID 0000.0001) // Begin MONITOR dynamic field statistics
(PID.TID 0000.0001) // =======================================================
(PID.TID 0000.0001) %MON time_tsnumber                =                   820
(PID.TID 0000.0001) %MON time_secondsf                =   4.9200000000000E+04
(PID.TID 0000.0001) %MON dynstat_eta_max              =   3.2627525248965E-04
(PID.TID 0000.0001) %MON dynstat_eta_min              =  -2.7187973008575E-04
(PID.TID 0000.0001) %MON dynstat_eta_mean             =   1.9204127809876E-19
(PID.TID 0000.0001) %MON dynstat_eta_sd               =   1.9584466970769E-04
(PID.TID 0000.0001) %MON dynstat_eta_del2             =   3.7579380201978E-08
(PID.TID 0000.0001) %MON dynstat_uvel_max             =   6.9361498903471E-03
(PID.TID 0000.0001) %MON dynstat_uvel_min             =  -5.8605509178126E-02
(PID.TID 0000.0001) %MON dynstat_uvel_mean            =   1.9372995278526E-05
(PID.TID 0000.0001) %MON dynstat_uvel_sd              =   2.0710339367233E-03
(PID.TID 0000.0001) %MON dynstat_uvel_del2            =   1.1002216322783E-07
(PID.TID 0000.0001) %MON dynstat_vvel_max             =   1.1032690112269E-02
(PID.TID 0000.0001) %MON dynstat_vvel_min             =  -7.9137853810978E-02
(PID.TID 0000.0001) %MON dynstat_vvel_mean            =   6.1270174321828E-05
(PID.TID 0000.0001) %MON dynstat_vvel_sd              =   2.9944821050036E-03
(PID.TID 0000.0001) %MON dynstat_vvel_del2            =   1.2054724984067E-07
(PID.TID 0000.0001) %MON dynstat_wvel_max             =   2.2514557902509E-05
(PID.TID 0000.0001) %MON dynstat_wvel_min             =  -9.2549939128716E-06
(PID.TID 0000.0001) %MON dynstat_wvel_mean            =   1.5568125200054E-07
(PID.TID 0000.0001) %MON dynstat_wvel_sd              =   1.1162339213222E-06
(PID.TID 0000.0001) %MON dynstat_wvel_del2            =   5.2324061296785E-10
(PID.TID 0000.0001) %MON dynstat_theta_max            =   1.6578880916099E+01
(PID.TID 0000.0001) %MON dynstat_theta_min            =   4.1845975760443E+00
(PID.TID 0000.0001) %MON dynstat_theta_mean           =   7.5988660781927E+00
(PID.TID 0000.0001) %MON dynstat_theta_sd             =   3.5908696152930E+00
(PID.TID 0000.0001) %MON dynstat_theta_del2           =   3.1452041824063E-08
(PID.TID 0000.0001) %MON dynstat_salt_max             =   3.4476099767359E+01
(PID.TID 0000.0001) %MON dynstat_salt_min             =   3.3629999999994E+01
(PID.TID 0000.0001) %MON dynstat_salt_mean            =   3.4188927847759E+01
(PID.TID 0000.0001) %MON dynstat_salt_sd              =   2.7007108552517E-01
(PID.TID 0000.0001) %MON dynstat_salt_del2            =   1.2666306229518E-09
(PID.TID 0000.0001) %MON trAdv_CFL_u_max              =   1.6781126720768E-03
(PID.TID 0000.0001) %MON trAdv_CFL_v_max              =   2.3996154332424E-03
(PID.TID 0000.0001) %MON trAdv_CFL_w_max              =   5.6781951934897E-04
(PID.TID 0000.0001) %MON advcfl_uvel_max              =   1.7544805406072E-03
(PID.TID 0000.0001) %MON advcfl_vvel_max              =   2.3630293762609E-03
(PID.TID 0000.0001) %MON advcfl_wvel_max              =   5.8733629310892E-04
(PID.TID 0000.0001) %MON advcfl_W_hf_max              =   6.1403339734114E-04
(PID.TID 0000.0001) %MON pe_b_mean                    =   1.9652721554888E-10
(PID.TID 0000.0001) %MON ke_max                       =   4.7309170861111E-03
(PID.TID 0000.0001) %MON ke_mean                      =   6.6170534816389E-06
(PID.TID 0000.0001) %MON ke_vol                       =   8.2635254160858E+14
(PID.TID 0000.0001) %MON vort_r_min                   =  -7.4820833024482E-06
(PID.TID 0000.0001) %MON vort_r_max                   =   1.4806942703526E-05
(PID.TID 0000.0001) %MON vort_a_mean                  =   6.9142466381008E-04
(PID.TID 0000.0001) %MON vort_a_sd                    =   1.4201665541995E-06
(PID.TID 0000.0001) %MON vort_p_mean                  =   6.9569812303954E-04
(PID.TID 0000.0001) %MON vort_p_sd                    =   9.4066087305082E-05
(PID.TID 0000.0001) %MON surfExpan_theta_mean         =  -4.4482530692989E-13
(PID.TID 0000.0001) %MON surfExpan_salt_mean          =   1.4834649291337E-21
(PID.TID 0000.0001) // =======================================================
(PID.TID 0000.0001) // End MONITOR dynamic field statistics
(PID.TID 0000.0001) // =======================================================
(PID.TID 0000.0001) // =======================================================
(PID.TID 0000.0001) // Begin OBCS MONITOR field statistics
(PID.TID 0000.0001) // =======================================================
(PID.TID 0000.0001) %MON obc_S_vVel_max               =   4.1767061047735E-04
(PID.TID 0000.0001) %MON obc_S_vVel_min               =  -7.9137853810978E-02
(PID.TID 0000.0001) %MON obc_S_vVel_mean              =  -8.9753096984396E-20
(PID.TID 0000.0001) %MON obc_S_vVel_sd                =   3.5574650846982E-03
(PID.TID 0000.0001) %MON obc_S_vVel_Int               =  -1.5240075867951E-10
(PID.TID 0000.0001) // =======================================================
(PID.TID 0000.0001) // End OBCS MONITOR field statistics
(PID.TID 0000.0001) // =======================================================
 EXTERNAL_FIELDS_LOAD,       820 : iP,iLd,i0,i1=   41   42   41   42 ; Wght=  0.5000000000  0.5000000000
 cg2d: Sum(rhs),rhsMax =  -4.43378667114303E-12  4.12371541252708E-04
 EXTERNAL_FIELDS_LOAD,       821 : iP,iLd,i0,i1=   41   42   41   42 ; Wght=  0.4500000000  0.5500000000
 cg2d: Sum(rhs),rhsMax =  -3.18323145620525E-12  4.53359505970637E-04
 EXTERNAL_FIELDS_LOAD,       822 : iP,iLd,i0,i1=   41   42   41   42 ; Wght=  0.4000000000  0.6000000000
 cg2d: Sum(rhs),rhsMax =  -2.68585154117318E-12  4.94108573516930E-04
 EXTERNAL_FIELDS_LOAD,       823 : iP,iLd,i0,i1=   41   42   41   42 ; Wght=  0.3500000000  0.6500000000
 cg2d: Sum(rhs),rhsMax =  -3.18323145620525E-12  5.32936961780368E-04
 EXTERNAL_FIELDS_LOAD,       824 : iP,iLd,i0,i1=   41   42   41   42 ; Wght=  0.3000000000  0.7000000000
 cg2d: Sum(rhs),rhsMax =  -1.71951342053944E-12  5.69750520795609E-04
 EXTERNAL_FIELDS_LOAD,       825 : iP,iLd,i0,i1=   41   42   41   42 ; Wght=  0.2500000000  0.7500000000
 cg2d: Sum(rhs),rhsMax =  -2.30215846386272E-12  6.04464204370393E-04
 EXTERNAL_FIELDS_LOAD,       826 : iP,iLd,i0,i1=   41   42   41   42 ; Wght=  0.2000000000  0.8000000000
 cg2d: Sum(rhs),rhsMax =  -1.26476606965298E-12  6.37002049630466E-04
 EXTERNAL_FIELDS_LOAD,       827 : iP,iLd,i0,i1=   41   42   41   42 ; Wght=  0.1500000000  0.8500000000
 cg2d: Sum(rhs),rhsMax =  -4.54747350886464E-12  6.67297103557783E-04
 EXTERNAL_FIELDS_LOAD,       828 : iP,iLd,i0,i1=   41   42   41   42 ; Wght=  0.1000000000  0.9000000000
 cg2d: Sum(rhs),rhsMax =  -2.54374299402116E-12  6.95291299326522E-04
 EXTERNAL_FIELDS_LOAD,       829 : iP,iLd,i0,i1=   41   42   41   42 ; Wght=  0.0500000000  0.9500000000
 cg2d: Sum(rhs),rhsMax =  -2.58637555816676E-12  7.20935288675081E-04
 EXTERNAL_FIELDS_LOAD,       830 : iP,iLd,i0,i1=   41   42   42   43 ; Wght=  1.0000000000  0.0000000000
 EXTERNAL_FIELDS_LOAD, it=       830 : Reading new data, i0,i1=   42   43 (prev=   41   42 )
(PID.TID 0000.0001)  MDS_READ_FIELD: opening global file: ../input/merid_halfgauss2p5hr_272x320.bin
(PID.TID 0000.0001)  MDS_READ_FIELD: opening global file: ../input/merid_halfgauss2p5hr_272x320.bin
 cg2d: Sum(rhs),rhsMax =  -1.79056769411545E-12  7.44188235065542E-04
 EXTERNAL_FIELDS_LOAD,       831 : iP,iLd,i0,i1=   42   43   42   43 ; Wght=  0.9500000000  0.0500000000
 cg2d: Sum(rhs),rhsMax =  -2.03215222427389E-12  7.65017572042651E-04
 EXTERNAL_FIELDS_LOAD,       832 : iP,iLd,i0,i1=   42   43   42   43 ; Wght=  0.9000000000  0.1000000000
 cg2d: Sum(rhs),rhsMax =  -2.38742359215394E-12  7.96059503951246E-04
 EXTERNAL_FIELDS_LOAD,       833 : iP,iLd,i0,i1=   42   43   42   43 ; Wght=  0.8500000000  0.1500000000
 cg2d: Sum(rhs),rhsMax =  -3.01270119962282E-12  8.24471963366420E-04
 EXTERNAL_FIELDS_LOAD,       834 : iP,iLd,i0,i1=   42   43   42   43 ; Wght=  0.8000000000  0.2000000000
 cg2d: Sum(rhs),rhsMax =  -6.11066752753686E-13  8.49970887870247E-04
 EXTERNAL_FIELDS_LOAD,       835 : iP,iLd,i0,i1=   42   43   42   43 ; Wght=  0.7500000000  0.2500000000
 cg2d: Sum(rhs),rhsMax =  -1.23634436022257E-12  8.72560485599043E-04
 EXTERNAL_FIELDS_LOAD,       836 : iP,iLd,i0,i1=   42   43   42   43 ; Wght=  0.7000000000  0.3000000000
 cg2d: Sum(rhs),rhsMax =  -2.77111666946439E-12  8.92252105314430E-04
 EXTERNAL_FIELDS_LOAD,       837 : iP,iLd,i0,i1=   42   43   42   43 ; Wght=  0.6500000000  0.3500000000
 cg2d: Sum(rhs),rhsMax =  -2.74269496003399E-12  9.09063614994442E-04
 EXTERNAL_FIELDS_LOAD,       838 : iP,iLd,i0,i1=   42   43   42   43 ; Wght=  0.6000000000  0.4000000000
 cg2d: Sum(rhs),rhsMax =  -2.45847786572995E-12  9.23018800064519E-04
 EXTERNAL_FIELDS_LOAD,       839 : iP,iLd,i0,i1=   42   43   42   43 ; Wght=  0.5500000000  0.4500000000
 cg2d: Sum(rhs),rhsMax =  -1.87583282240666E-12  9.34146789308778E-04
(PID.TID 0000.0001)      cg2d_init_res =   1.23856356935557E-01
(PID.TID 0000.0001)      cg2d_iters(min,last) =      -1      29
(PID.TID 0000.0001)      cg2d_last_res =   7.87627101565262E-08
(PID.TID 0000.0001) // =======================================================
(PID.TID 0000.0001) // Begin MONITOR dynamic field statistics
(PID.TID 0000.0001) // =======================================================
(PID.TID 0000.0001) %MON time_tsnumber                =                   840
(PID.TID 0000.0001) %MON time_secondsf                =   5.0400000000000E+04
(PID.TID 0000.0001) %MON dynstat_eta_max              =   8.2992368049765E-04
(PID.TID 0000.0001) %MON dynstat_eta_min              =  -6.3781320569526E-04
(PID.TID 0000.0001) %MON dynstat_eta_mean             =   3.3229614412594E-19
(PID.TID 0000.0001) %MON dynstat_eta_sd               =   4.6808598201931E-04
(PID.TID 0000.0001) %MON dynstat_eta_del2             =   1.2550092041779E-08
(PID.TID 0000.0001) %MON dynstat_uvel_max             =   9.1876980784866E-03
(PID.TID 0000.0001) %MON dynstat_uvel_min             =  -8.9339733437057E-02
(PID.TID 0000.0001) %MON dynstat_uvel_mean            =   4.9222283611566E-05
(PID.TID 0000.0001) %MON dynstat_uvel_sd              =   3.5844275951417E-03
(PID.TID 0000.0001) %MON dynstat_uvel_del2            =   1.1696724039433E-07
(PID.TID 0000.0001) %MON dynstat_vvel_max             =   6.6974072710631E-03
(PID.TID 0000.0001) %MON dynstat_vvel_min             =  -3.0366520286303E-02
(PID.TID 0000.0001) %MON dynstat_vvel_mean            =   3.4770203584996E-06
(PID.TID 0000.0001) %MON dynstat_vvel_sd              =   5.5706489366333E-04
(PID.TID 0000.0001) %MON dynstat_vvel_del2            =   1.1369808671912E-07
(PID.TID 0000.0001) %MON dynstat_wvel_max             =   1.3067087243820E-05
(PID.TID 0000.0001) %MON dynstat_wvel_min             =  -1.3415743305616E-05
(PID.TID 0000.0001) %MON dynstat_wvel_mean            =   6.4507963006398E-08
(PID.TID 0000.0001) %MON dynstat_wvel_sd              =   5.8660460945393E-07
(PID.TID 0000.0001) %MON dynstat_wvel_del2            =   5.0103486076947E-10
(PID.TID 0000.0001) %MON dynstat_theta_max            =   1.6578839468261E+01
(PID.TID 0000.0001) %MON dynstat_theta_min            =   4.1845945195755E+00
(PID.TID 0000.0001) %MON dynstat_theta_mean           =   7.5988636606280E+00
(PID.TID 0000.0001) %MON dynstat_theta_sd             =   3.5908657651482E+00
(PID.TID 0000.0001) %MON dynstat_theta_del2           =   3.3902290432246E-08
(PID.TID 0000.0001) %MON dynstat_salt_max             =   3.4476100078888E+01
(PID.TID 0000.0001) %MON dynstat_salt_min             =   3.3629999999994E+01
(PID.TID 0000.0001) %MON dynstat_salt_mean            =   3.4188927996101E+01
(PID.TID 0000.0001) %MON dynstat_salt_sd              =   2.7007090408761E-01
(PID.TID 0000.0001) %MON dynstat_salt_del2            =   1.4336066752662E-09
(PID.TID 0000.0001) %MON trAdv_CFL_u_max              =   2.6663641760512E-03
(PID.TID 0000.0001) %MON trAdv_CFL_v_max              =   1.0041380400585E-03
(PID.TID 0000.0001) %MON trAdv_CFL_w_max              =   3.5475036319423E-04
(PID.TID 0000.0001) %MON advcfl_uvel_max              =   2.6745753755241E-03
(PID.TID 0000.0001) %MON advcfl_vvel_max              =   9.0673395898188E-04
(PID.TID 0000.0001) %MON advcfl_wvel_max              =   3.4907527855347E-04
(PID.TID 0000.0001) %MON advcfl_W_hf_max              =   3.6494233666953E-04
(PID.TID 0000.0001) %MON pe_b_mean                    =   1.1226657147250E-09
(PID.TID 0000.0001) %MON ke_max                       =   6.0528654501755E-03
(PID.TID 0000.0001) %MON ke_mean                      =   6.5785134794038E-06
(PID.TID 0000.0001) %MON ke_vol                       =   8.2635254160858E+14
(PID.TID 0000.0001) %MON vort_r_min                   =  -9.3122051091471E-06
(PID.TID 0000.0001) %MON vort_r_max                   =   3.9135708229705E-05
(PID.TID 0000.0001) %MON vort_a_mean                  =   6.9142466381008E-04
(PID.TID 0000.0001) %MON vort_a_sd                    =   1.4248031110859E-06
(PID.TID 0000.0001) %MON vort_p_mean                  =   6.9569812303954E-04
(PID.TID 0000.0001) %MON vort_p_sd                    =   9.4070000455433E-05
(PID.TID 0000.0001) %MON surfExpan_theta_mean         =  -2.0885698467043E-14
(PID.TID 0000.0001) %MON surfExpan_salt_mean          =  -4.1195652506481E-21
(PID.TID 0000.0001) // =======================================================
(PID.TID 0000.0001) // End MONITOR dynamic field statistics
(PID.TID 0000.0001) // =======================================================
(PID.TID 0000.0001) // =======================================================
(PID.TID 0000.0001) // Begin OBCS MONITOR field statistics
(PID.TID 0000.0001) // =======================================================
(PID.TID 0000.0001) %MON obc_S_vVel_max               =   1.8901380432820E-04
(PID.TID 0000.0001) %MON obc_S_vVel_min               =  -3.0366520286303E-02
(PID.TID 0000.0001) %MON obc_S_vVel_mean              =  -1.0486573002443E-20
(PID.TID 0000.0001) %MON obc_S_vVel_sd                =   1.3656867029811E-03
(PID.TID 0000.0001) %MON obc_S_vVel_Int               =  -1.7806200958148E-11
(PID.TID 0000.0001) // =======================================================
(PID.TID 0000.0001) // End OBCS MONITOR field statistics
(PID.TID 0000.0001) // =======================================================
 EXTERNAL_FIELDS_LOAD,       840 : iP,iLd,i0,i1=   42   43   42   43 ; Wght=  0.5000000000  0.5000000000
 cg2d: Sum(rhs),rhsMax =  -9.66338120633736E-13  9.42481515815834E-04
 EXTERNAL_FIELDS_LOAD,       841 : iP,iLd,i0,i1=   42   43   42   43 ; Wght=  0.4500000000  0.5500000000
 cg2d: Sum(rhs),rhsMax =  -2.37321273743873E-12  9.48061218163516E-04
 EXTERNAL_FIELDS_LOAD,       842 : iP,iLd,i0,i1=   42   43   42   43 ; Wght=  0.4000000000  0.6000000000
 cg2d: Sum(rhs),rhsMax =  -2.18847162614111E-12  9.50927987289274E-04
 EXTERNAL_FIELDS_LOAD,       843 : iP,iLd,i0,i1=   42   43   42   43 ; Wght=  0.3500000000  0.6500000000
 cg2d: Sum(rhs),rhsMax =  -1.23634436022257E-12  9.51127362599903E-04
 EXTERNAL_FIELDS_LOAD,       844 : iP,iLd,i0,i1=   42   43   42   43 ; Wght=  0.3000000000  0.7000000000
 cg2d: Sum(rhs),rhsMax =  -2.14583906199550E-12  9.48707980391715E-04
 EXTERNAL_FIELDS_LOAD,       845 : iP,iLd,i0,i1=   42   43   42   43 ; Wght=  0.2500000000  0.7500000000
 cg2d: Sum(rhs),rhsMax =  -4.26325641456060E-13  9.43721275291098E-04
 EXTERNAL_FIELDS_LOAD,       846 : iP,iLd,i0,i1=   42   43   42   43 ; Wght=  0.2000000000  0.8000000000
 cg2d: Sum(rhs),rhsMax =  -1.37845290737459E-12  9.36221236150100E-04
 EXTERNAL_FIELDS_LOAD,       847 : iP,iLd,i0,i1=   42   43   42   43 ; Wght=  0.1500000000  0.8500000000
 cg2d: Sum(rhs),rhsMax =  -1.71951342053944E-12  9.26264214586219E-04
 EXTERNAL_FIELDS_LOAD,       848 : iP,iLd,i0,i1=   42   43   42   43 ; Wght=  0.1000000000  0.9000000000
 cg2d: Sum(rhs),rhsMax =  -1.49213974509621E-12  9.13908785371193E-04
 EXTERNAL_FIELDS_LOAD,       849 : iP,iLd,i0,i1=   42   43   42   43 ; Wght=  0.0500000000  0.9500000000
 cg2d: Sum(rhs),rhsMax =  -1.98951966012828E-12  8.99215655306103E-04
 EXTERNAL_FIELDS_LOAD,       850 : iP,iLd,i0,i1=   42   43   43   44 ; Wght=  1.0000000000  0.0000000000
 EXTERNAL_FIELDS_LOAD, it=       850 : Reading new data, i0,i1=   43   44 (prev=   42   43 )
(PID.TID 0000.0001)  MDS_READ_FIELD: opening global file: ../input/merid_halfgauss2p5hr_272x320.bin
(PID.TID 0000.0001)  MDS_READ_FIELD: opening global file: ../input/merid_halfgauss2p5hr_272x320.bin
 cg2d: Sum(rhs),rhsMax =  -2.08899564313469E-12  8.82247617182870E-04
 EXTERNAL_FIELDS_LOAD,       851 : iP,iLd,i0,i1=   43   44   43   44 ; Wght=  0.9500000000  0.0500000000
 cg2d: Sum(rhs),rhsMax =  -2.21689333557151E-12  8.63069544200717E-04
 EXTERNAL_FIELDS_LOAD,       852 : iP,iLd,i0,i1=   43   44   43   44 ; Wght=  0.9000000000  0.1000000000
 cg2d: Sum(rhs),rhsMax =  -2.60058641288197E-12  8.41748419982049E-04
 EXTERNAL_FIELDS_LOAD,       853 : iP,iLd,i0,i1=   43   44   43   44 ; Wght=  0.8500000000  0.1500000000
 cg2d: Sum(rhs),rhsMax =  -1.40687461680500E-12  8.18353398259492E-04
 EXTERNAL_FIELDS_LOAD,       854 : iP,iLd,i0,i1=   43   44   43   44 ; Wght=  0.8000000000  0.2000000000
 cg2d: Sum(rhs),rhsMax =  -9.66338120633736E-13  7.92955886144579E-04
 EXTERNAL_FIELDS_LOAD,       855 : iP,iLd,i0,i1=   43   44   43   44 ; Wght=  0.7500000000  0.2500000000
 cg2d: Sum(rhs),rhsMax =  -2.03215222427389E-12  7.65629644699995E-04
 EXTERNAL_FIELDS_LOAD,       856 : iP,iLd,i0,i1=   43   44   43   44 ; Wght=  0.7000000000  0.3000000000
 cg2d: Sum(rhs),rhsMax =  -1.94688709598267E-12  7.36450899864346E-04
 EXTERNAL_FIELDS_LOAD,       857 : iP,iLd,i0,i1=   43   44   43   44 ; Wght=  0.6500000000  0.3500000000
 cg2d: Sum(rhs),rhsMax =  -2.95585778076202E-12  7.05498457365969E-04
 EXTERNAL_FIELDS_LOAD,       858 : iP,iLd,i0,i1=   43   44   43   44 ; Wght=  0.6000000000  0.4000000000
 cg2d: Sum(rhs),rhsMax =  -2.67164068645798E-12  6.72853814934732E-04
 EXTERNAL_FIELDS_LOAD,       859 : iP,iLd,i0,i1=   43   44   43   44 ; Wght=  0.5500000000  0.4500000000
 cg2d: Sum(rhs),rhsMax =  -2.33058017329313E-12  6.38601265507370E-04
(PID.TID 0000.0001)      cg2d_init_res =   2.26898057844337E+00
(PID.TID 0000.0001)      cg2d_iters(min,last) =      -1      37
(PID.TID 0000.0001)      cg2d_last_res =   6.87687157583533E-08
(PID.TID 0000.0001) // =======================================================
(PID.TID 0000.0001) // Begin MONITOR dynamic field statistics
(PID.TID 0000.0001) // =======================================================
(PID.TID 0000.0001) %MON time_tsnumber                =                   860
(PID.TID 0000.0001) %MON time_secondsf                =   5.1600000000000E+04
(PID.TID 0000.0001) %MON dynstat_eta_max              =   5.6315033491401E-04
(PID.TID 0000.0001) %MON dynstat_eta_min              =  -3.3993982664532E-04
(PID.TID 0000.0001) %MON dynstat_eta_mean             =   1.3593933168788E-19
(PID.TID 0000.0001) %MON dynstat_eta_sd               =   2.2255736498643E-04
(PID.TID 0000.0001) %MON dynstat_eta_del2             =   3.1265558754851E-08
(PID.TID 0000.0001) %MON dynstat_uvel_max             =   1.0522352817115E-02
(PID.TID 0000.0001) %MON dynstat_uvel_min             =  -7.4886325111416E-02
(PID.TID 0000.0001) %MON dynstat_uvel_mean            =   2.4565734829175E-05
(PID.TID 0000.0001) %MON dynstat_uvel_sd              =   2.7782988375846E-03
(PID.TID 0000.0001) %MON dynstat_uvel_del2            =   1.2306291277735E-07
(PID.TID 0000.0001) %MON dynstat_vvel_max             =   6.3584450553269E-02
(PID.TID 0000.0001) %MON dynstat_vvel_min             =  -6.3530758018443E-03
(PID.TID 0000.0001) %MON dynstat_vvel_mean            =  -5.6311614520748E-05
(PID.TID 0000.0001) %MON dynstat_vvel_sd              =   2.3171826541852E-03
(PID.TID 0000.0001) %MON dynstat_vvel_del2            =   1.0610868152764E-07
(PID.TID 0000.0001) %MON dynstat_wvel_max             =   6.2508634311793E-06
(PID.TID 0000.0001) %MON dynstat_wvel_min             =  -1.8628530530168E-05
(PID.TID 0000.0001) %MON dynstat_wvel_mean            =  -6.6590500954600E-08
(PID.TID 0000.0001) %MON dynstat_wvel_sd              =   1.0904439147437E-06
(PID.TID 0000.0001) %MON dynstat_wvel_del2            =   5.9280368249102E-10
(PID.TID 0000.0001) %MON dynstat_theta_max            =   1.6578811720292E+01
(PID.TID 0000.0001) %MON dynstat_theta_min            =   4.1845971526343E+00
(PID.TID 0000.0001) %MON dynstat_theta_mean           =   7.5988637666137E+00
(PID.TID 0000.0001) %MON dynstat_theta_sd             =   3.5908647064742E+00
(PID.TID 0000.0001) %MON dynstat_theta_del2           =   2.4241635684985E-08
(PID.TID 0000.0001) %MON dynstat_salt_max             =   3.4476099810515E+01
(PID.TID 0000.0001) %MON dynstat_salt_min             =   3.3629999999994E+01
(PID.TID 0000.0001) %MON dynstat_salt_mean            =   3.4188927992161E+01
(PID.TID 0000.0001) %MON dynstat_salt_sd              =   2.7007084907587E-01
(PID.TID 0000.0001) %MON dynstat_salt_del2            =   9.7896420902329E-10
(PID.TID 0000.0001) %MON trAdv_CFL_u_max              =   2.3409806617379E-03
(PID.TID 0000.0001) %MON trAdv_CFL_v_max              =   1.8289788085862E-03
(PID.TID 0000.0001) %MON trAdv_CFL_w_max              =   4.8854631817794E-04
(PID.TID 0000.0001) %MON advcfl_uvel_max              =   2.2934601954497E-03
(PID.TID 0000.0001) %MON advcfl_vvel_max              =   1.8986100493661E-03
(PID.TID 0000.0001) %MON advcfl_wvel_max              =   4.7467366055247E-04
(PID.TID 0000.0001) %MON advcfl_W_hf_max              =   4.9624973603213E-04
(PID.TID 0000.0001) %MON pe_b_mean                    =   2.5379504027672E-10
(PID.TID 0000.0001) %MON ke_max                       =   5.1351352350141E-03
(PID.TID 0000.0001) %MON ke_mean                      =   6.5430671043396E-06
(PID.TID 0000.0001) %MON ke_vol                       =   8.2635254160858E+14
(PID.TID 0000.0001) %MON vort_r_min                   =  -9.4007306286806E-06
(PID.TID 0000.0001) %MON vort_r_max                   =   3.8126216284253E-05
(PID.TID 0000.0001) %MON vort_a_mean                  =   6.9142466381008E-04
(PID.TID 0000.0001) %MON vort_a_sd                    =   1.4242683495058E-06
(PID.TID 0000.0001) %MON vort_p_mean                  =   6.9569812303954E-04
(PID.TID 0000.0001) %MON vort_p_sd                    =   9.4070351838844E-05
(PID.TID 0000.0001) %MON surfExpan_theta_mean         =   4.0541099712113E-13
(PID.TID 0000.0001) %MON surfExpan_salt_mean          =  -1.2811742569791E-21
(PID.TID 0000.0001) // =======================================================
(PID.TID 0000.0001) // End MONITOR dynamic field statistics
(PID.TID 0000.0001) // =======================================================
(PID.TID 0000.0001) // =======================================================
(PID.TID 0000.0001) // Begin OBCS MONITOR field statistics
(PID.TID 0000.0001) // =======================================================
(PID.TID 0000.0001) %MON obc_S_vVel_max               =   3.7665843384518E-02
(PID.TID 0000.0001) %MON obc_S_vVel_min               =  -1.8911012687126E-04
(PID.TID 0000.0001) %MON obc_S_vVel_mean              =   1.7781352885327E-20
(PID.TID 0000.0001) %MON obc_S_vVel_sd                =   1.6934092770510E-03
(PID.TID 0000.0001) %MON obc_S_vVel_Int               =   3.0192737199286E-11
(PID.TID 0000.0001) // =======================================================
(PID.TID 0000.0001) // End OBCS MONITOR field statistics
(PID.TID 0000.0001) // =======================================================
 EXTERNAL_FIELDS_LOAD,       860 : iP,iLd,i0,i1=   43   44   43   44 ; Wght=  0.5000000000  0.5000000000
 cg2d: Sum(rhs),rhsMax =  -2.31636931857793E-12  6.02827985278696E-04
 EXTERNAL_FIELDS_LOAD,       861 : iP,iLd,i0,i1=   43   44   43   44 ; Wght=  0.4500000000  0.5500000000
 cg2d: Sum(rhs),rhsMax =  -2.68585154117318E-12  5.65624101263438E-04
 EXTERNAL_FIELDS_LOAD,       862 : iP,iLd,i0,i1=   43   44   43   44 ; Wght=  0.4000000000  0.6000000000
 cg2d: Sum(rhs),rhsMax =  -2.79953837889479E-12  5.27082733106034E-04
 EXTERNAL_FIELDS_LOAD,       863 : iP,iLd,i0,i1=   43   44   43   44 ; Wght=  0.3500000000  0.6500000000
 cg2d: Sum(rhs),rhsMax =  -3.55271367880050E-12  4.87300004810171E-04
 EXTERNAL_FIELDS_LOAD,       864 : iP,iLd,i0,i1=   43   44   43   44 ; Wght=  0.3000000000  0.7000000000
 cg2d: Sum(rhs),rhsMax =  -2.54374299402116E-12  4.46375022639254E-04
 EXTERNAL_FIELDS_LOAD,       865 : iP,iLd,i0,i1=   43   44   43   44 ; Wght=  0.2500000000  0.7500000000
 cg2d: Sum(rhs),rhsMax =  -3.33955085807247E-12  4.04409816184474E-04
 EXTERNAL_FIELDS_LOAD,       866 : iP,iLd,i0,i1=   43   44   43   44 ; Wght=  0.2000000000  0.8000000000
 cg2d: Sum(rhs),rhsMax =  -3.89377419196535E-12  3.61509240468776E-04
 EXTERNAL_FIELDS_LOAD,       867 : iP,iLd,i0,i1=   43   44   43   44 ; Wght=  0.1500000000  0.8500000000
 cg2d: Sum(rhs),rhsMax =  -4.46220838057343E-12  3.17780837550851E-04
 EXTERNAL_FIELDS_LOAD,       868 : iP,iLd,i0,i1=   43   44   43   44 ; Wght=  0.1000000000  0.9000000000
 cg2d: Sum(rhs),rhsMax =  -5.55377965838488E-12  2.73334657179750E-04
 EXTERNAL_FIELDS_LOAD,       869 : iP,iLd,i0,i1=   43   44   43   44 ; Wght=  0.0500000000  0.9500000000
 cg2d: Sum(rhs),rhsMax =  -6.84607925904857E-12  2.28283036684051E-04
 EXTERNAL_FIELDS_LOAD,       870 : iP,iLd,i0,i1=   43   44   44   45 ; Wght=  1.0000000000  0.0000000000
 EXTERNAL_FIELDS_LOAD, it=       870 : Reading new data, i0,i1=   44   45 (prev=   43   44 )
(PID.TID 0000.0001)  MDS_READ_FIELD: opening global file: ../input/merid_halfgauss2p5hr_272x320.bin
(PID.TID 0000.0001)  MDS_READ_FIELD: opening global file: ../input/merid_halfgauss2p5hr_272x320.bin
 cg2d: Sum(rhs),rhsMax =  -8.61177795741241E-12  1.82740341098054E-04
 EXTERNAL_FIELDS_LOAD,       871 : iP,iLd,i0,i1=   44   45   44   45 ; Wght=  0.9500000000  0.0500000000
 cg2d: Sum(rhs),rhsMax =  -9.59232693276135E-12  1.65734781084600E-04
 EXTERNAL_FIELDS_LOAD,       872 : iP,iLd,i0,i1=   44   45   44   45 ; Wght=  0.9000000000  0.1000000000
 cg2d: Sum(rhs),rhsMax =  -9.15179043659009E-12  2.02381960211310E-04
 EXTERNAL_FIELDS_LOAD,       873 : iP,iLd,i0,i1=   44   45   44   45 ; Wght=  0.8500000000  0.1500000000
 cg2d: Sum(rhs),rhsMax =  -5.51381162949838E-12  2.40580452538697E-04
 EXTERNAL_FIELDS_LOAD,       874 : iP,iLd,i0,i1=   44   45   44   45 ; Wght=  0.8000000000  0.2000000000
 cg2d: Sum(rhs),rhsMax =  -5.84066128794802E-12  2.79027489034674E-04
 EXTERNAL_FIELDS_LOAD,       875 : iP,iLd,i0,i1=   44   45   44   45 ; Wght=  0.7500000000  0.2500000000
 cg2d: Sum(rhs),rhsMax =  -6.73594513500575E-12  3.16540952611734E-04
 EXTERNAL_FIELDS_LOAD,       876 : iP,iLd,i0,i1=   44   45   44   45 ; Wght=  0.7000000000  0.3000000000
 cg2d: Sum(rhs),rhsMax =  -5.31485966348555E-12  3.53005941879064E-04
 EXTERNAL_FIELDS_LOAD,       877 : iP,iLd,i0,i1=   44   45   44   45 ; Wght=  0.6500000000  0.3500000000
 cg2d: Sum(rhs),rhsMax =  -4.47641923528863E-12  3.88310843781772E-04
 EXTERNAL_FIELDS_LOAD,       878 : iP,iLd,i0,i1=   44   45   44   45 ; Wght=  0.6000000000  0.4000000000
 cg2d: Sum(rhs),rhsMax =  -2.17426077142591E-12  4.22347734336325E-04
 EXTERNAL_FIELDS_LOAD,       879 : iP,iLd,i0,i1=   44   45   44   45 ; Wght=  0.5500000000  0.4500000000
 cg2d: Sum(rhs),rhsMax =  -2.34479102800833E-12  4.55012769356395E-04
(PID.TID 0000.0001)      cg2d_init_res =   2.99102259960260E+00
(PID.TID 0000.0001)      cg2d_iters(min,last) =      -1      37
(PID.TID 0000.0001)      cg2d_last_res =   8.66166999243046E-08
(PID.TID 0000.0001) // =======================================================
(PID.TID 0000.0001) // Begin MONITOR dynamic field statistics
(PID.TID 0000.0001) // =======================================================
(PID.TID 0000.0001) %MON time_tsnumber                =                   880
(PID.TID 0000.0001) %MON time_secondsf                =   5.2800000000000E+04
(PID.TID 0000.0001) %MON dynstat_eta_max              =   3.5242032109261E-04
(PID.TID 0000.0001) %MON dynstat_eta_min              =  -3.8682797034494E-04
(PID.TID 0000.0001) %MON dynstat_eta_mean             =   1.9527792885323E-19
(PID.TID 0000.0001) %MON dynstat_eta_sd               =   2.5984260942128E-04
(PID.TID 0000.0001) %MON dynstat_eta_del2             =   1.7367132497799E-08
(PID.TID 0000.0001) %MON dynstat_uvel_max             =   1.0723718444370E-02
(PID.TID 0000.0001) %MON dynstat_uvel_min             =  -2.3888611474521E-02
(PID.TID 0000.0001) %MON dynstat_uvel_mean            =  -2.6206654331582E-05
(PID.TID 0000.0001) %MON dynstat_uvel_sd              =   3.1336129367248E-04
(PID.TID 0000.0001) %MON dynstat_uvel_del2            =   1.0965503243063E-07
(PID.TID 0000.0001) %MON dynstat_vvel_max             =   8.9221881105648E-02
(PID.TID 0000.0001) %MON dynstat_vvel_min             =  -9.2407323929731E-03
(PID.TID 0000.0001) %MON dynstat_vvel_mean            =  -5.3095202578797E-05
(PID.TID 0000.0001) %MON dynstat_vvel_sd              =   3.5975323952454E-03
(PID.TID 0000.0001) %MON dynstat_vvel_del2            =   1.1099873841140E-07
(PID.TID 0000.0001) %MON dynstat_wvel_max             =   8.0258992721068E-06
(PID.TID 0000.0001) %MON dynstat_wvel_min             =  -2.6040620850046E-05
(PID.TID 0000.0001) %MON dynstat_wvel_mean            =  -1.5419489099857E-07
(PID.TID 0000.0001) %MON dynstat_wvel_sd              =   1.3101716926322E-06
(PID.TID 0000.0001) %MON dynstat_wvel_del2            =   5.7906753189450E-10
(PID.TID 0000.0001) %MON dynstat_theta_max            =   1.6578794675127E+01
(PID.TID 0000.0001) %MON dynstat_theta_min            =   4.1846021362181E+00
(PID.TID 0000.0001) %MON dynstat_theta_mean           =   7.5988662960704E+00
(PID.TID 0000.0001) %MON dynstat_theta_sd             =   3.5908662797209E+00
(PID.TID 0000.0001) %MON dynstat_theta_del2           =   2.3340568551556E-08
(PID.TID 0000.0001) %MON dynstat_salt_max             =   3.4476099302561E+01
(PID.TID 0000.0001) %MON dynstat_salt_min             =   3.3629999999994E+01
(PID.TID 0000.0001) %MON dynstat_salt_mean            =   3.4188927840546E+01
(PID.TID 0000.0001) %MON dynstat_salt_sd              =   2.7007091367566E-01
(PID.TID 0000.0001) %MON dynstat_salt_del2            =   8.4429401501289E-10
(PID.TID 0000.0001) %MON trAdv_CFL_u_max              =   8.6310556259820E-04
(PID.TID 0000.0001) %MON trAdv_CFL_v_max              =   2.6662932794706E-03
(PID.TID 0000.0001) %MON trAdv_CFL_w_max              =   5.8101260878623E-04
(PID.TID 0000.0001) %MON advcfl_uvel_max              =   7.6237767003788E-04
(PID.TID 0000.0001) %MON advcfl_vvel_max              =   2.6641349986757E-03
(PID.TID 0000.0001) %MON advcfl_wvel_max              =   5.6186111215022E-04
(PID.TID 0000.0001) %MON advcfl_W_hf_max              =   5.8740025361159E-04
(PID.TID 0000.0001) %MON pe_b_mean                    =   3.4595525117494E-10
(PID.TID 0000.0001) %MON ke_max                       =   3.9344284069735E-03
(PID.TID 0000.0001) %MON ke_mean                      =   6.5083042883025E-06
(PID.TID 0000.0001) %MON ke_vol                       =   8.2635254160858E+14
(PID.TID 0000.0001) %MON vort_r_min                   =  -4.4391696496033E-06
(PID.TID 0000.0001) %MON vort_r_max                   =   1.2674505187215E-05
(PID.TID 0000.0001) %MON vort_a_mean                  =   6.9142466381008E-04
(PID.TID 0000.0001) %MON vort_a_sd                    =   1.4195564622371E-06
(PID.TID 0000.0001) %MON vort_p_mean                  =   6.9569812303954E-04
(PID.TID 0000.0001) %MON vort_p_sd                    =   9.4067239963846E-05
(PID.TID 0000.0001) %MON surfExpan_theta_mean         =  -4.2541590371643E-13
(PID.TID 0000.0001) %MON surfExpan_salt_mean          =  -5.4618481481739E-21
(PID.TID 0000.0001) // =======================================================
(PID.TID 0000.0001) // End MONITOR dynamic field statistics
(PID.TID 0000.0001) // =======================================================
(PID.TID 0000.0001) // =======================================================
(PID.TID 0000.0001) // Begin OBCS MONITOR field statistics
(PID.TID 0000.0001) // =======================================================
(PID.TID 0000.0001) %MON obc_S_vVel_max               =   8.0906907491080E-02
(PID.TID 0000.0001) %MON obc_S_vVel_min               =  -4.2137972022290E-04
(PID.TID 0000.0001) %MON obc_S_vVel_mean              =   1.0587003071102E-21
(PID.TID 0000.0001) %MON obc_S_vVel_sd                =   3.6385716502995E-03
(PID.TID 0000.0001) %MON obc_S_vVel_Int               =   1.7976731214731E-12
(PID.TID 0000.0001) // =======================================================
(PID.TID 0000.0001) // End OBCS MONITOR field statistics
(PID.TID 0000.0001) // =======================================================
 EXTERNAL_FIELDS_LOAD,       880 : iP,iLd,i0,i1=   44   45   44   45 ; Wght=  0.5000000000  0.5000000000
 cg2d: Sum(rhs),rhsMax =  -3.11217718262924E-12  4.86206564074907E-04
 EXTERNAL_FIELDS_LOAD,       881 : iP,iLd,i0,i1=   44   45   44   45 ; Wght=  0.4500000000  0.5500000000
 cg2d: Sum(rhs),rhsMax =  -2.84217094304040E-12  5.15834556920902E-04
 EXTERNAL_FIELDS_LOAD,       882 : iP,iLd,i0,i1=   44   45   44   45 ; Wght=  0.4000000000  0.6000000000
 cg2d: Sum(rhs),rhsMax =  -1.87583282240666E-12  5.43810147368584E-04
 EXTERNAL_FIELDS_LOAD,       883 : iP,iLd,i0,i1=   44   45   44   45 ; Wght=  0.3500000000  0.6500000000
 cg2d: Sum(rhs),rhsMax =  -3.89377419196535E-12  5.70047484960531E-04
 EXTERNAL_FIELDS_LOAD,       884 : iP,iLd,i0,i1=   44   45   44   45 ; Wght=  0.3000000000  0.7000000000
 cg2d: Sum(rhs),rhsMax =  -2.71427325060358E-12  5.94467763043000E-04
 EXTERNAL_FIELDS_LOAD,       885 : iP,iLd,i0,i1=   44   45   44   45 ; Wght=  0.2500000000  0.7500000000
 cg2d: Sum(rhs),rhsMax =  -9.94759830064140E-13  6.16998962031760E-04
 EXTERNAL_FIELDS_LOAD,       886 : iP,iLd,i0,i1=   44   45   44   45 ; Wght=  0.2000000000  0.8000000000
 cg2d: Sum(rhs),rhsMax =  -2.61479726759717E-12  6.37575405859779E-04
 EXTERNAL_FIELDS_LOAD,       887 : iP,iLd,i0,i1=   44   45   44   45 ; Wght=  0.1500000000  0.8500000000
 cg2d: Sum(rhs),rhsMax =  -1.42108547152020E-12  6.56137992717677E-04
 EXTERNAL_FIELDS_LOAD,       888 : iP,iLd,i0,i1=   44   45   44   45 ; Wght=  0.1000000000  0.9000000000
 cg2d: Sum(rhs),rhsMax =  -1.50635059981141E-12  6.72636018330161E-04
 EXTERNAL_FIELDS_LOAD,       889 : iP,iLd,i0,i1=   44   45   44   45 ; Wght=  0.0500000000  0.9500000000
 cg2d: Sum(rhs),rhsMax =  -2.34479102800833E-12  6.87025436912250E-04
 EXTERNAL_FIELDS_LOAD,       890 : iP,iLd,i0,i1=   44   45   45   46 ; Wght=  1.0000000000  0.0000000000
 EXTERNAL_FIELDS_LOAD, it=       890 : Reading new data, i0,i1=   45   46 (prev=   44   45 )
(PID.TID 0000.0001)  MDS_READ_FIELD: opening global file: ../input/merid_halfgauss2p5hr_272x320.bin
(PID.TID 0000.0001)  MDS_READ_FIELD: opening global file: ../input/merid_halfgauss2p5hr_272x320.bin
 cg2d: Sum(rhs),rhsMax =  -3.55271367880050E-12  6.99264784703690E-04
 EXTERNAL_FIELDS_LOAD,       891 : iP,iLd,i0,i1=   45   46   45   46 ; Wght=  0.9500000000  0.0500000000
 cg2d: Sum(rhs),rhsMax =  -1.30739863379858E-12  7.09322935403513E-04
 EXTERNAL_FIELDS_LOAD,       892 : iP,iLd,i0,i1=   45   46   45   46 ; Wght=  0.9000000000  0.1000000000
 cg2d: Sum(rhs),rhsMax =  -3.04112290905323E-12  7.20112010261167E-04
 EXTERNAL_FIELDS_LOAD,       893 : iP,iLd,i0,i1=   45   46   45   46 ; Wght=  0.8500000000  0.1500000000
 cg2d: Sum(rhs),rhsMax =  -2.08899564313469E-12  7.37793290158912E-04
 EXTERNAL_FIELDS_LOAD,       894 : iP,iLd,i0,i1=   45   46   45   46 ; Wght=  0.8000000000  0.2000000000
 cg2d: Sum(rhs),rhsMax =  -1.56319401867222E-12  7.62377835791646E-04
 EXTERNAL_FIELDS_LOAD,       895 : iP,iLd,i0,i1=   45   46   45   46 ; Wght=  0.7500000000  0.2500000000
 cg2d: Sum(rhs),rhsMax =  -2.55795384873636E-12  7.85080795011554E-04
 EXTERNAL_FIELDS_LOAD,       896 : iP,iLd,i0,i1=   45   46   45   46 ; Wght=  0.7000000000  0.3000000000
 cg2d: Sum(rhs),rhsMax =  -1.83320025826106E-12  8.05867058350395E-04
 EXTERNAL_FIELDS_LOAD,       897 : iP,iLd,i0,i1=   45   46   45   46 ; Wght=  0.6500000000  0.3500000000
 cg2d: Sum(rhs),rhsMax =  -2.38742359215394E-12  8.24707519060849E-04
 EXTERNAL_FIELDS_LOAD,       898 : iP,iLd,i0,i1=   45   46   45   46 ; Wght=  0.6000000000  0.4000000000
 cg2d: Sum(rhs),rhsMax =  -1.56319401867222E-12  8.41578982514870E-04
 EXTERNAL_FIELDS_LOAD,       899 : iP,iLd,i0,i1=   45   46   45   46 ; Wght=  0.5500000000  0.4500000000
 cg2d: Sum(rhs),rhsMax =  -2.47268872044515E-12  8.56464046608517E-04
(PID.TID 0000.0001)      cg2d_init_res =   2.70148660809173E-01
(PID.TID 0000.0001)      cg2d_iters(min,last) =      -1      32
(PID.TID 0000.0001)      cg2d_last_res =   9.25565916621700E-08
(PID.TID 0000.0001) // =======================================================
(PID.TID 0000.0001) // Begin MONITOR dynamic field statistics
(PID.TID 0000.0001) // =======================================================
(PID.TID 0000.0001) %MON time_tsnumber                =                   900
(PID.TID 0000.0001) %MON time_secondsf                =   5.4000000000000E+04
(PID.TID 0000.0001) %MON dynstat_eta_max              =   6.5292859888096E-04
(PID.TID 0000.0001) %MON dynstat_eta_min              =  -7.5886089935626E-04
(PID.TID 0000.0001) %MON dynstat_eta_mean             =   1.6183253772367E-19
(PID.TID 0000.0001) %MON dynstat_eta_sd               =   4.4296762317705E-04
(PID.TID 0000.0001) %MON dynstat_eta_del2             =   2.7207106073102E-08
(PID.TID 0000.0001) %MON dynstat_uvel_max             =   6.9157750809146E-02
(PID.TID 0000.0001) %MON dynstat_uvel_min             =  -5.9176897739795E-03
(PID.TID 0000.0001) %MON dynstat_uvel_mean            =  -4.6861832876591E-05
(PID.TID 0000.0001) %MON dynstat_uvel_sd              =   2.5399670116733E-03
(PID.TID 0000.0001) %MON dynstat_uvel_del2            =   1.0304448788188E-07
(PID.TID 0000.0001) %MON dynstat_vvel_max             =   7.2270464798698E-02
(PID.TID 0000.0001) %MON dynstat_vvel_min             =  -9.4103116184224E-03
(PID.TID 0000.0001) %MON dynstat_vvel_mean            =   8.2340701294640E-06
(PID.TID 0000.0001) %MON dynstat_vvel_sd              =   2.5526005388187E-03
(PID.TID 0000.0001) %MON dynstat_vvel_del2            =   1.1335243313708E-07
(PID.TID 0000.0001) %MON dynstat_wvel_max             =   1.0399684756235E-05
(PID.TID 0000.0001) %MON dynstat_wvel_min             =  -2.0308960575009E-05
(PID.TID 0000.0001) %MON dynstat_wvel_mean            =  -1.4287346556320E-07
(PID.TID 0000.0001) %MON dynstat_wvel_sd              =   8.4961764219326E-07
(PID.TID 0000.0001) %MON dynstat_wvel_del2            =   4.6931070263172E-10
(PID.TID 0000.0001) %MON dynstat_theta_max            =   1.6578786675715E+01
(PID.TID 0000.0001) %MON dynstat_theta_min            =   4.1846024284216E+00
(PID.TID 0000.0001) %MON dynstat_theta_mean           =   7.5988696217570E+00
(PID.TID 0000.0001) %MON dynstat_theta_sd             =   3.5908686636162E+00
(PID.TID 0000.0001) %MON dynstat_theta_del2           =   3.2539225607859E-08
(PID.TID 0000.0001) %MON dynstat_salt_max             =   3.4476099272779E+01
(PID.TID 0000.0001) %MON dynstat_salt_min             =   3.3629999999994E+01
(PID.TID 0000.0001) %MON dynstat_salt_mean            =   3.4188927638802E+01
(PID.TID 0000.0001) %MON dynstat_salt_sd              =   2.7007101574508E-01
(PID.TID 0000.0001) %MON dynstat_salt_del2            =   1.3205945706836E-09
(PID.TID 0000.0001) %MON trAdv_CFL_u_max              =   2.0072952122420E-03
(PID.TID 0000.0001) %MON trAdv_CFL_v_max              =   2.2092961445064E-03
(PID.TID 0000.0001) %MON trAdv_CFL_w_max              =   5.6306344608689E-04
(PID.TID 0000.0001) %MON advcfl_uvel_max              =   2.0703841350579E-03
(PID.TID 0000.0001) %MON advcfl_vvel_max              =   2.1579714780143E-03
(PID.TID 0000.0001) %MON advcfl_wvel_max              =   5.2979897152197E-04
(PID.TID 0000.0001) %MON advcfl_W_hf_max              =   5.5388074295478E-04
(PID.TID 0000.0001) %MON pe_b_mean                    =   1.0054099021168E-09
(PID.TID 0000.0001) %MON ke_max                       =   5.0219037259425E-03
(PID.TID 0000.0001) %MON ke_mean                      =   6.4738228841034E-06
(PID.TID 0000.0001) %MON ke_vol                       =   8.2635254160858E+14
(PID.TID 0000.0001) %MON vort_r_min                   =  -2.0784884332848E-05
(PID.TID 0000.0001) %MON vort_r_max                   =   7.6912915402924E-06
(PID.TID 0000.0001) %MON vort_a_mean                  =   6.9142466381008E-04
(PID.TID 0000.0001) %MON vort_a_sd                    =   1.4203994438222E-06
(PID.TID 0000.0001) %MON vort_p_mean                  =   6.9569812303954E-04
(PID.TID 0000.0001) %MON vort_p_sd                    =   9.4063270188778E-05
(PID.TID 0000.0001) %MON surfExpan_theta_mean         =   8.9604343738790E-14
(PID.TID 0000.0001) %MON surfExpan_salt_mean          =  -5.9001446045089E-22
(PID.TID 0000.0001) // =======================================================
(PID.TID 0000.0001) // End MONITOR dynamic field statistics
(PID.TID 0000.0001) // =======================================================
(PID.TID 0000.0001) // =======================================================
(PID.TID 0000.0001) // Begin OBCS MONITOR field statistics
(PID.TID 0000.0001) // =======================================================
(PID.TID 0000.0001) %MON obc_S_vVel_max               =   7.2270464798698E-02
(PID.TID 0000.0001) %MON obc_S_vVel_min               =  -3.9969443075576E-04
(PID.TID 0000.0001) %MON obc_S_vVel_mean              =  -1.1173472826206E-19
(PID.TID 0000.0001) %MON obc_S_vVel_sd                =   3.2510448091502E-03
(PID.TID 0000.0001) %MON obc_S_vVel_Int               =  -1.8972556858898E-10
(PID.TID 0000.0001) // =======================================================
(PID.TID 0000.0001) // End OBCS MONITOR field statistics
(PID.TID 0000.0001) // =======================================================
 EXTERNAL_FIELDS_LOAD,       900 : iP,iLd,i0,i1=   45   46   45   46 ; Wght=  0.5000000000  0.5000000000
 cg2d: Sum(rhs),rhsMax =  -2.43005615629954E-12  8.69350956914116E-04
 EXTERNAL_FIELDS_LOAD,       901 : iP,iLd,i0,i1=   45   46   45   46 ; Wght=  0.4500000000  0.5500000000
 cg2d: Sum(rhs),rhsMax =  -1.56319401867222E-12  8.80233439505299E-04
 EXTERNAL_FIELDS_LOAD,       902 : iP,iLd,i0,i1=   45   46   45   46 ; Wght=  0.4000000000  0.6000000000
 cg2d: Sum(rhs),rhsMax =  -2.06057393370429E-12  8.89110515341794E-04
 EXTERNAL_FIELDS_LOAD,       903 : iP,iLd,i0,i1=   45   46   45   46 ; Wght=  0.3500000000  0.6500000000
 cg2d: Sum(rhs),rhsMax =  -2.10320649784990E-12  8.95986299913406E-04
 EXTERNAL_FIELDS_LOAD,       904 : iP,iLd,i0,i1=   45   46   45   46 ; Wght=  0.3000000000  0.7000000000
 cg2d: Sum(rhs),rhsMax =  -1.36424205265939E-12  9.00869792167627E-04
 EXTERNAL_FIELDS_LOAD,       905 : iP,iLd,i0,i1=   45   46   45   46 ; Wght=  0.2500000000  0.7500000000
 cg2d: Sum(rhs),rhsMax =  -1.62003743753303E-12  9.03774656085287E-04
 EXTERNAL_FIELDS_LOAD,       906 : iP,iLd,i0,i1=   45   46   45   46 ; Wght=  0.2000000000  0.8000000000
 cg2d: Sum(rhs),rhsMax =  -1.64845914696343E-12  9.04718998929655E-04
 EXTERNAL_FIELDS_LOAD,       907 : iP,iLd,i0,i1=   45   46   45   46 ; Wght=  0.1500000000  0.8500000000
 cg2d: Sum(rhs),rhsMax =  -1.42108547152020E-12  9.03725149630601E-04
 EXTERNAL_FIELDS_LOAD,       908 : iP,iLd,i0,i1=   45   46   45   46 ; Wght=  0.1000000000  0.9000000000
 cg2d: Sum(rhs),rhsMax =  -3.12638803734444E-13  9.00819440422160E-04
 EXTERNAL_FIELDS_LOAD,       909 : iP,iLd,i0,i1=   45   46   45   46 ; Wght=  0.0500000000  0.9500000000
 cg2d: Sum(rhs),rhsMax =  -1.77635683940025E-12  8.96031995272706E-04
 EXTERNAL_FIELDS_LOAD,       910 : iP,iLd,i0,i1=   45   46   46   47 ; Wght=  1.0000000000  0.0000000000
 EXTERNAL_FIELDS_LOAD, it=       910 : Reading new data, i0,i1=   46   47 (prev=   45   46 )
(PID.TID 0000.0001)  MDS_READ_FIELD: opening global file: ../input/merid_halfgauss2p5hr_272x320.bin
(PID.TID 0000.0001)  MDS_READ_FIELD: opening global file: ../input/merid_halfgauss2p5hr_272x320.bin
 cg2d: Sum(rhs),rhsMax =  -9.66338120633736E-13  8.89396527510971E-04
 EXTERNAL_FIELDS_LOAD,       911 : iP,iLd,i0,i1=   46   47   46   47 ; Wght=  0.9500000000  0.0500000000
 cg2d: Sum(rhs),rhsMax =  -6.53699316899292E-13  8.80950149256853E-04
 EXTERNAL_FIELDS_LOAD,       912 : iP,iLd,i0,i1=   46   47   46   47 ; Wght=  0.9000000000  0.1000000000
 cg2d: Sum(rhs),rhsMax =  -1.86162196769146E-12  8.70733194702416E-04
 EXTERNAL_FIELDS_LOAD,       913 : iP,iLd,i0,i1=   46   47   46   47 ; Wght=  0.8500000000  0.1500000000
 cg2d: Sum(rhs),rhsMax =  -1.27897692436818E-12  8.58789058941956E-04
 EXTERNAL_FIELDS_LOAD,       914 : iP,iLd,i0,i1=   46   47   46   47 ; Wght=  0.8000000000  0.2000000000
 cg2d: Sum(rhs),rhsMax =  -9.59232693276135E-13  8.45164053459834E-04
 EXTERNAL_FIELDS_LOAD,       915 : iP,iLd,i0,i1=   46   47   46   47 ; Wght=  0.7500000000  0.2500000000
 cg2d: Sum(rhs),rhsMax =  -1.73372427525464E-12  8.29907279324703E-04
 EXTERNAL_FIELDS_LOAD,       916 : iP,iLd,i0,i1=   46   47   46   47 ; Wght=  0.7000000000  0.3000000000
 cg2d: Sum(rhs),rhsMax =  -1.10134124042816E-12  8.13070518245764E-04
 EXTERNAL_FIELDS_LOAD,       917 : iP,iLd,i0,i1=   46   47   46   47 ; Wght=  0.6500000000  0.3500000000
 cg2d: Sum(rhs),rhsMax =  -9.80548975348938E-13  7.94708141486645E-04
 EXTERNAL_FIELDS_LOAD,       918 : iP,iLd,i0,i1=   46   47   46   47 ; Wght=  0.6000000000  0.4000000000
 cg2d: Sum(rhs),rhsMax =  -1.27897692436818E-12  7.74880421496340E-04
 EXTERNAL_FIELDS_LOAD,       919 : iP,iLd,i0,i1=   46   47   46   47 ; Wght=  0.5500000000  0.4500000000
 cg2d: Sum(rhs),rhsMax =  -1.64135371960583E-12  7.53646015306544E-04
(PID.TID 0000.0001)      cg2d_init_res =   1.99996217998650E+00
(PID.TID 0000.0001)      cg2d_iters(min,last) =      -1      36
(PID.TID 0000.0001)      cg2d_last_res =   9.12430050678346E-08
(PID.TID 0000.0001) // =======================================================
(PID.TID 0000.0001) // Begin MONITOR dynamic field statistics
(PID.TID 0000.0001) // =======================================================
(PID.TID 0000.0001) %MON time_tsnumber                =                   920
(PID.TID 0000.0001) %MON time_secondsf                =   5.5200000000000E+04
(PID.TID 0000.0001) %MON dynstat_eta_max              =   2.0512416248686E-04
(PID.TID 0000.0001) %MON dynstat_eta_min              =  -6.5810943661554E-04
(PID.TID 0000.0001) %MON dynstat_eta_mean             =   1.6776639744021E-19
(PID.TID 0000.0001) %MON dynstat_eta_sd               =   1.4026180481784E-04
(PID.TID 0000.0001) %MON dynstat_eta_del2             =   7.2229430162715E-08
(PID.TID 0000.0001) %MON dynstat_uvel_max             =   8.8815615973143E-02
(PID.TID 0000.0001) %MON dynstat_uvel_min             =  -8.5063556279620E-03
(PID.TID 0000.0001) %MON dynstat_uvel_mean            =  -1.5635177760418E-05
(PID.TID 0000.0001) %MON dynstat_uvel_sd              =   3.5745192512844E-03
(PID.TID 0000.0001) %MON dynstat_uvel_del2            =   1.1628716237975E-07
(PID.TID 0000.0001) %MON dynstat_vvel_max             =   1.8103342253561E-02
(PID.TID 0000.0001) %MON dynstat_vvel_min             =  -1.7637086204055E-02
(PID.TID 0000.0001) %MON dynstat_vvel_mean            =   5.8661044943339E-05
(PID.TID 0000.0001) %MON dynstat_vvel_sd              =   3.1803981014104E-04
(PID.TID 0000.0001) %MON dynstat_vvel_del2            =   1.0252377483039E-07
(PID.TID 0000.0001) %MON dynstat_wvel_max             =   1.3608592281294E-05
(PID.TID 0000.0001) %MON dynstat_wvel_min             =  -8.9692494749342E-06
(PID.TID 0000.0001) %MON dynstat_wvel_mean            =  -3.9758845894629E-08
(PID.TID 0000.0001) %MON dynstat_wvel_sd              =   6.8834349986986E-07
(PID.TID 0000.0001) %MON dynstat_wvel_del2            =   4.7495762733955E-10
(PID.TID 0000.0001) %MON dynstat_theta_max            =   1.6578789815361E+01
(PID.TID 0000.0001) %MON dynstat_theta_min            =   4.1846028339686E+00
(PID.TID 0000.0001) %MON dynstat_theta_mean           =   7.5988716067258E+00
(PID.TID 0000.0001) %MON dynstat_theta_sd             =   3.5908695170898E+00
(PID.TID 0000.0001) %MON dynstat_theta_del2           =   3.0137927100359E-08
(PID.TID 0000.0001) %MON dynstat_salt_max             =   3.4476099231444E+01
(PID.TID 0000.0001) %MON dynstat_salt_min             =   3.3629999999993E+01
(PID.TID 0000.0001) %MON dynstat_salt_mean            =   3.4188927516544E+01
(PID.TID 0000.0001) %MON dynstat_salt_sd              =   2.7007104907921E-01
(PID.TID 0000.0001) %MON dynstat_salt_del2            =   1.2860868896497E-09
(PID.TID 0000.0001) %MON trAdv_CFL_u_max              =   2.6696084883236E-03
(PID.TID 0000.0001) %MON trAdv_CFL_v_max              =   6.1381194751618E-04
(PID.TID 0000.0001) %MON trAdv_CFL_w_max              =   3.3369090278353E-04
(PID.TID 0000.0001) %MON advcfl_uvel_max              =   2.6588845870512E-03
(PID.TID 0000.0001) %MON advcfl_vvel_max              =   5.4055963731147E-04
(PID.TID 0000.0001) %MON advcfl_wvel_max              =   3.5500675516419E-04
(PID.TID 0000.0001) %MON advcfl_W_hf_max              =   3.7114342585347E-04
(PID.TID 0000.0001) %MON pe_b_mean                    =   1.0080406251184E-10
(PID.TID 0000.0001) %MON ke_max                       =   5.9489835738659E-03
(PID.TID 0000.0001) %MON ke_mean                      =   6.4403952735450E-06
(PID.TID 0000.0001) %MON ke_vol                       =   8.2635254160858E+14
(PID.TID 0000.0001) %MON vort_r_min                   =  -4.0768757098599E-05
(PID.TID 0000.0001) %MON vort_r_max                   =   9.5247568655770E-06
(PID.TID 0000.0001) %MON vort_a_mean                  =   6.9142466381008E-04
(PID.TID 0000.0001) %MON vort_a_sd                    =   1.4246830207542E-06
(PID.TID 0000.0001) %MON vort_p_mean                  =   6.9569812303954E-04
(PID.TID 0000.0001) %MON vort_p_sd                    =   9.4061011000417E-05
(PID.TID 0000.0001) %MON surfExpan_theta_mean         =   6.6836199883149E-13
(PID.TID 0000.0001) %MON surfExpan_salt_mean          =  -3.3715112025765E-22
(PID.TID 0000.0001) // =======================================================
(PID.TID 0000.0001) // End MONITOR dynamic field statistics
(PID.TID 0000.0001) // =======================================================
(PID.TID 0000.0001) // =======================================================
(PID.TID 0000.0001) // Begin OBCS MONITOR field statistics
(PID.TID 0000.0001) // =======================================================
(PID.TID 0000.0001) %MON obc_S_vVel_max               =   1.7165197039283E-02
(PID.TID 0000.0001) %MON obc_S_vVel_min               =  -1.2339797559562E-04
(PID.TID 0000.0001) %MON obc_S_vVel_mean              =  -1.4064394198408E-20
(PID.TID 0000.0001) %MON obc_S_vVel_sd                =   7.7257609924733E-04
(PID.TID 0000.0001) %MON obc_S_vVel_Int               =  -2.3881341348897E-11
(PID.TID 0000.0001) // =======================================================
(PID.TID 0000.0001) // End OBCS MONITOR field statistics
(PID.TID 0000.0001) // =======================================================
 EXTERNAL_FIELDS_LOAD,       920 : iP,iLd,i0,i1=   46   47   46   47 ; Wght=  0.5000000000  0.5000000000
 cg2d: Sum(rhs),rhsMax =  -1.51345602716901E-12  7.31063582890639E-04
 EXTERNAL_FIELDS_LOAD,       921 : iP,iLd,i0,i1=   46   47   46   47 ; Wght=  0.4500000000  0.5500000000
 cg2d: Sum(rhs),rhsMax =  -1.69819713846664E-12  7.07197220598976E-04
 EXTERNAL_FIELDS_LOAD,       922 : iP,iLd,i0,i1=   46   47   46   47 ; Wght=  0.4000000000  0.6000000000
 cg2d: Sum(rhs),rhsMax =  -1.43174361255660E-12  6.82113403813050E-04
 EXTERNAL_FIELDS_LOAD,       923 : iP,iLd,i0,i1=   46   47   46   47 ; Wght=  0.3500000000  0.6500000000
 cg2d: Sum(rhs),rhsMax =  -1.76214598468505E-12  6.55880978013038E-04
 EXTERNAL_FIELDS_LOAD,       924 : iP,iLd,i0,i1=   46   47   46   47 ; Wght=  0.3000000000  0.7000000000
 cg2d: Sum(rhs),rhsMax =  -1.69819713846664E-12  6.28572261284264E-04
 EXTERNAL_FIELDS_LOAD,       925 : iP,iLd,i0,i1=   46   47   46   47 ; Wght=  0.2500000000  0.7500000000
 cg2d: Sum(rhs),rhsMax =  -1.81987758196556E-12  6.00266563436163E-04
 EXTERNAL_FIELDS_LOAD,       926 : iP,iLd,i0,i1=   46   47   46   47 ; Wght=  0.2000000000  0.8000000000
 cg2d: Sum(rhs),rhsMax =  -1.85629289717326E-12  5.71032790206015E-04
 EXTERNAL_FIELDS_LOAD,       927 : iP,iLd,i0,i1=   46   47   46   47 ; Wght=  0.1500000000  0.8500000000
 cg2d: Sum(rhs),rhsMax =  -1.83497661510046E-12  5.40949174932781E-04
 EXTERNAL_FIELDS_LOAD,       928 : iP,iLd,i0,i1=   46   47   46   47 ; Wght=  0.1000000000  0.9000000000
 cg2d: Sum(rhs),rhsMax =  -2.44781972469355E-12  5.10096318274323E-04
 EXTERNAL_FIELDS_LOAD,       929 : iP,iLd,i0,i1=   46   47   46   47 ; Wght=  0.0500000000  0.9500000000
 cg2d: Sum(rhs),rhsMax =  -1.84030568561866E-12  4.78557173883260E-04
 EXTERNAL_FIELDS_LOAD,       930 : iP,iLd,i0,i1=   46   47   47   48 ; Wght=  1.0000000000  0.0000000000
 EXTERNAL_FIELDS_LOAD, it=       930 : Reading new data, i0,i1=   47   48 (prev=   46   47 )
(PID.TID 0000.0001)  MDS_READ_FIELD: opening global file: ../input/merid_halfgauss2p5hr_272x320.bin
(PID.TID 0000.0001)  MDS_READ_FIELD: opening global file: ../input/merid_halfgauss2p5hr_272x320.bin
 cg2d: Sum(rhs),rhsMax =  -3.13349346470204E-12  4.46417022316044E-04
 EXTERNAL_FIELDS_LOAD,       931 : iP,iLd,i0,i1=   47   48   47   48 ; Wght=  0.9500000000  0.0500000000
 cg2d: Sum(rhs),rhsMax =  -3.06243919112603E-12  4.13763430273723E-04
 EXTERNAL_FIELDS_LOAD,       932 : iP,iLd,i0,i1=   47   48   47   48 ; Wght=  0.9000000000  0.1000000000
 cg2d: Sum(rhs),rhsMax =  -3.01270119962282E-12  3.80686192417002E-04
 EXTERNAL_FIELDS_LOAD,       933 : iP,iLd,i0,i1=   47   48   47   48 ; Wght=  0.8500000000  0.1500000000
 cg2d: Sum(rhs),rhsMax =  -2.98427949019242E-12  3.58093907684495E-04
 EXTERNAL_FIELDS_LOAD,       934 : iP,iLd,i0,i1=   47   48   47   48 ; Wght=  0.8000000000  0.2000000000
 cg2d: Sum(rhs),rhsMax =  -2.38742359215394E-12  3.88117645344574E-04
 EXTERNAL_FIELDS_LOAD,       935 : iP,iLd,i0,i1=   47   48   47   48 ; Wght=  0.7500000000  0.2500000000
 cg2d: Sum(rhs),rhsMax =  -2.45847786572995E-12  4.17056221555863E-04
 EXTERNAL_FIELDS_LOAD,       936 : iP,iLd,i0,i1=   47   48   47   48 ; Wght=  0.7000000000  0.3000000000
 cg2d: Sum(rhs),rhsMax =  -3.51008111465489E-12  4.44830623962234E-04
 EXTERNAL_FIELDS_LOAD,       937 : iP,iLd,i0,i1=   47   48   47   48 ; Wght=  0.6500000000  0.3500000000
 cg2d: Sum(rhs),rhsMax =  -2.33058017329313E-12  4.71364730014463E-04
 EXTERNAL_FIELDS_LOAD,       938 : iP,iLd,i0,i1=   47   48   47   48 ; Wght=  0.6000000000  0.4000000000
 cg2d: Sum(rhs),rhsMax =  -2.75690581474919E-12  4.96585437995545E-04
 EXTERNAL_FIELDS_LOAD,       939 : iP,iLd,i0,i1=   47   48   47   48 ; Wght=  0.5500000000  0.4500000000
 cg2d: Sum(rhs),rhsMax =  -1.90425453183707E-12  5.20422794439195E-04
(PID.TID 0000.0001)      cg2d_init_res =   2.14059224075979E+00
(PID.TID 0000.0001)      cg2d_iters(min,last) =      -1      36
(PID.TID 0000.0001)      cg2d_last_res =   9.85148810466667E-08
(PID.TID 0000.0001) // =======================================================
(PID.TID 0000.0001) // Begin MONITOR dynamic field statistics
(PID.TID 0000.0001) // =======================================================
(PID.TID 0000.0001) %MON time_tsnumber                =                   940
(PID.TID 0000.0001) %MON time_secondsf                =   5.6400000000000E+04
(PID.TID 0000.0001) %MON dynstat_eta_max              =   4.4579028169488E-04
(PID.TID 0000.0001) %MON dynstat_eta_min              =  -4.6464184920226E-04
(PID.TID 0000.0001) %MON dynstat_eta_mean             =   2.3843327224621E-19
(PID.TID 0000.0001) %MON dynstat_eta_sd               =   3.1175747865459E-04
(PID.TID 0000.0001) %MON dynstat_eta_del2             =   8.6243412946113E-08
(PID.TID 0000.0001) %MON dynstat_uvel_max             =   6.7120610096956E-02
(PID.TID 0000.0001) %MON dynstat_uvel_min             =  -8.1702598506596E-03
(PID.TID 0000.0001) %MON dynstat_uvel_mean            =   3.1656247986010E-05
(PID.TID 0000.0001) %MON dynstat_uvel_sd              =   2.3007600421333E-03
(PID.TID 0000.0001) %MON dynstat_uvel_del2            =   1.1617164328565E-07
(PID.TID 0000.0001) %MON dynstat_vvel_max             =   5.5851114692811E-03
(PID.TID 0000.0001) %MON dynstat_vvel_min             =  -7.2962944890319E-02
(PID.TID 0000.0001) %MON dynstat_vvel_mean            =   4.3381589125521E-05
(PID.TID 0000.0001) %MON dynstat_vvel_sd              =   2.7428673711896E-03
(PID.TID 0000.0001) %MON dynstat_vvel_del2            =   9.4428162937984E-08
(PID.TID 0000.0001) %MON dynstat_wvel_max             =   2.0192795299646E-05
(PID.TID 0000.0001) %MON dynstat_wvel_min             =  -5.8028365094535E-06
(PID.TID 0000.0001) %MON dynstat_wvel_mean            =   8.9619648687739E-08
(PID.TID 0000.0001) %MON dynstat_wvel_sd              =   1.1387845786122E-06
(PID.TID 0000.0001) %MON dynstat_wvel_del2            =   5.5648532995565E-10
(PID.TID 0000.0001) %MON dynstat_theta_max            =   1.6578762904175E+01
(PID.TID 0000.0001) %MON dynstat_theta_min            =   4.1846030866170E+00
(PID.TID 0000.0001) %MON dynstat_theta_mean           =   7.5988709660011E+00
(PID.TID 0000.0001) %MON dynstat_theta_sd             =   3.5908674706611E+00
(PID.TID 0000.0001) %MON dynstat_theta_del2           =   1.7640705322964E-08
(PID.TID 0000.0001) %MON dynstat_salt_max             =   3.4476099205693E+01
(PID.TID 0000.0001) %MON dynstat_salt_min             =   3.3629999999993E+01
(PID.TID 0000.0001) %MON dynstat_salt_mean            =   3.4188927552857E+01
(PID.TID 0000.0001) %MON dynstat_salt_sd              =   2.7007095118172E-01
(PID.TID 0000.0001) %MON dynstat_salt_del2            =   7.2372325461232E-10
(PID.TID 0000.0001) %MON trAdv_CFL_u_max              =   2.1377395577508E-03
(PID.TID 0000.0001) %MON trAdv_CFL_v_max              =   2.1228928191466E-03
(PID.TID 0000.0001) %MON trAdv_CFL_w_max              =   4.3769849313528E-04
(PID.TID 0000.0001) %MON advcfl_uvel_max              =   2.0763349079311E-03
(PID.TID 0000.0001) %MON advcfl_vvel_max              =   2.1786486978298E-03
(PID.TID 0000.0001) %MON advcfl_wvel_max              =   4.6011572754087E-04
(PID.TID 0000.0001) %MON advcfl_W_hf_max              =   4.8103007879272E-04
(PID.TID 0000.0001) %MON pe_b_mean                    =   4.9800413650990E-10
(PID.TID 0000.0001) %MON ke_max                       =   4.6527370621168E-03
(PID.TID 0000.0001) %MON ke_mean                      =   6.4048426480999E-06
(PID.TID 0000.0001) %MON ke_vol                       =   8.2635254160858E+14
(PID.TID 0000.0001) %MON vort_r_min                   =  -3.4516758511746E-05
(PID.TID 0000.0001) %MON vort_r_max                   =   8.1082978694818E-06
(PID.TID 0000.0001) %MON vort_a_mean                  =   6.9142466381008E-04
(PID.TID 0000.0001) %MON vort_a_sd                    =   1.4233027370514E-06
(PID.TID 0000.0001) %MON vort_p_mean                  =   6.9569812303954E-04
(PID.TID 0000.0001) %MON vort_p_sd                    =   9.4061493265613E-05
(PID.TID 0000.0001) %MON surfExpan_theta_mean         =   1.0832947908514E-13
(PID.TID 0000.0001) %MON surfExpan_salt_mean          =   2.1914822816747E-21
(PID.TID 0000.0001) // =======================================================
(PID.TID 0000.0001) // End MONITOR dynamic field statistics
(PID.TID 0000.0001) // =======================================================
(PID.TID 0000.0001) // =======================================================
(PID.TID 0000.0001) // Begin OBCS MONITOR field statistics
(PID.TID 0000.0001) // =======================================================
(PID.TID 0000.0001) %MON obc_S_vVel_max               =   2.4379222914816E-04
(PID.TID 0000.0001) %MON obc_S_vVel_min               =  -4.8934257415442E-02
(PID.TID 0000.0001) %MON obc_S_vVel_mean              =   2.5339761698441E-20
(PID.TID 0000.0001) %MON obc_S_vVel_sd                =   2.2027431488284E-03
(PID.TID 0000.0001) %MON obc_S_vVel_Int               =   4.3026915363953E-11
(PID.TID 0000.0001) // =======================================================
(PID.TID 0000.0001) // End OBCS MONITOR field statistics
(PID.TID 0000.0001) // =======================================================
 EXTERNAL_FIELDS_LOAD,       940 : iP,iLd,i0,i1=   47   48   47   48 ; Wght=  0.5000000000  0.5000000000
 cg2d: Sum(rhs),rhsMax =  -2.47268872044515E-12  5.45609490409462E-04
 EXTERNAL_FIELDS_LOAD,       941 : iP,iLd,i0,i1=   47   48   47   48 ; Wght=  0.4500000000  0.5500000000
 cg2d: Sum(rhs),rhsMax =  -7.53175299905706E-13  5.69289381635977E-04
 EXTERNAL_FIELDS_LOAD,       942 : iP,iLd,i0,i1=   47   48   47   48 ; Wght=  0.4000000000  0.6000000000
 cg2d: Sum(rhs),rhsMax =  -8.52651282912120E-14  5.91100002757674E-04
 EXTERNAL_FIELDS_LOAD,       943 : iP,iLd,i0,i1=   47   48   47   48 ; Wght=  0.3500000000  0.6500000000
 cg2d: Sum(rhs),rhsMax =  -1.84741111297626E-12  6.10980174553312E-04
 EXTERNAL_FIELDS_LOAD,       944 : iP,iLd,i0,i1=   47   48   47   48 ; Wght=  0.3000000000  0.7000000000
 cg2d: Sum(rhs),rhsMax =  -2.21689333557151E-12  6.28875162503360E-04
 EXTERNAL_FIELDS_LOAD,       945 : iP,iLd,i0,i1=   47   48   47   48 ; Wght=  0.2500000000  0.7500000000
 cg2d: Sum(rhs),rhsMax =  -1.59161572810262E-12  6.44736565303053E-04
 EXTERNAL_FIELDS_LOAD,       946 : iP,iLd,i0,i1=   47   48   47   48 ; Wght=  0.2000000000  0.8000000000
 cg2d: Sum(rhs),rhsMax =  -1.86162196769146E-12  6.58522722055155E-04
 EXTERNAL_FIELDS_LOAD,       947 : iP,iLd,i0,i1=   47   48   47   48 ; Wght=  0.1500000000  0.8500000000
 cg2d: Sum(rhs),rhsMax =  -2.40163444686914E-12  6.70752195351652E-04
 EXTERNAL_FIELDS_LOAD,       948 : iP,iLd,i0,i1=   47   48   47   48 ; Wght=  0.1000000000  0.9000000000
 cg2d: Sum(rhs),rhsMax =   9.94759830064140E-14  6.82956639519402E-04
 EXTERNAL_FIELDS_LOAD,       949 : iP,iLd,i0,i1=   47   48   47   48 ; Wght=  0.0500000000  0.9500000000
 cg2d: Sum(rhs),rhsMax =  -2.35900188272353E-12  6.93239737078945E-04
 EXTERNAL_FIELDS_LOAD,       950 : iP,iLd,i0,i1=   47   48   48   49 ; Wght=  1.0000000000  0.0000000000
 EXTERNAL_FIELDS_LOAD, it=       950 : Reading new data, i0,i1=   48   49 (prev=   47   48 )
(PID.TID 0000.0001)  MDS_READ_FIELD: opening global file: ../input/merid_halfgauss2p5hr_272x320.bin
(PID.TID 0000.0001)  MDS_READ_FIELD: opening global file: ../input/merid_halfgauss2p5hr_272x320.bin
 cg2d: Sum(rhs),rhsMax =  -2.60058641288197E-12  7.01568464257360E-04
 EXTERNAL_FIELDS_LOAD,       951 : iP,iLd,i0,i1=   48   49   48   49 ; Wght=  0.9500000000  0.0500000000
 cg2d: Sum(rhs),rhsMax =  -2.10320649784990E-12  7.07914631634094E-04
 EXTERNAL_FIELDS_LOAD,       952 : iP,iLd,i0,i1=   48   49   48   49 ; Wght=  0.9000000000  0.1000000000
 cg2d: Sum(rhs),rhsMax =  -5.68434188608080E-14  7.12255020194539E-04
 EXTERNAL_FIELDS_LOAD,       953 : iP,iLd,i0,i1=   48   49   48   49 ; Wght=  0.8500000000  0.1500000000
 cg2d: Sum(rhs),rhsMax =  -1.12265752250096E-12  7.14571510326018E-04
 EXTERNAL_FIELDS_LOAD,       954 : iP,iLd,i0,i1=   48   49   48   49 ; Wght=  0.8000000000  0.2000000000
 cg2d: Sum(rhs),rhsMax =  -2.47268872044515E-12  7.14851208439664E-04
 EXTERNAL_FIELDS_LOAD,       955 : iP,iLd,i0,i1=   48   49   48   49 ; Wght=  0.7500000000  0.2500000000
 cg2d: Sum(rhs),rhsMax =  -3.26849658449646E-13  7.13086564464699E-04
 EXTERNAL_FIELDS_LOAD,       956 : iP,iLd,i0,i1=   48   49   48   49 ; Wght=  0.7000000000  0.3000000000
 cg2d: Sum(rhs),rhsMax =  -2.99849034490762E-12  7.09275480862084E-04
 EXTERNAL_FIELDS_LOAD,       957 : iP,iLd,i0,i1=   48   49   48   49 ; Wght=  0.6500000000  0.3500000000
 cg2d: Sum(rhs),rhsMax =  -1.43529632623540E-12  7.03421414421880E-04
 EXTERNAL_FIELDS_LOAD,       958 : iP,iLd,i0,i1=   48   49   48   49 ; Wght=  0.6000000000  0.4000000000
 cg2d: Sum(rhs),rhsMax =  -4.40536496171262E-13  6.95533463366750E-04
 EXTERNAL_FIELDS_LOAD,       959 : iP,iLd,i0,i1=   48   49   48   49 ; Wght=  0.5500000000  0.4500000000
 cg2d: Sum(rhs),rhsMax =  -2.28794760914752E-12  6.85626447219249E-04
(PID.TID 0000.0001)      cg2d_init_res =   7.23727029319048E-01
(PID.TID 0000.0001)      cg2d_iters(min,last) =      -1      34
(PID.TID 0000.0001)      cg2d_last_res =   7.40212621038358E-08
(PID.TID 0000.0001) // =======================================================
(PID.TID 0000.0001) // Begin MONITOR dynamic field statistics
(PID.TID 0000.0001) // =======================================================
(PID.TID 0000.0001) %MON time_tsnumber                =                   960
(PID.TID 0000.0001) %MON time_secondsf                =   5.7600000000000E+04
(PID.TID 0000.0001) %MON dynstat_eta_max              =   5.9749670799379E-04
(PID.TID 0000.0001) %MON dynstat_eta_min              =  -5.7714000393263E-04
(PID.TID 0000.0001) %MON dynstat_eta_mean             =   1.4025486602718E-19
(PID.TID 0000.0001) %MON dynstat_eta_sd               =   4.0418241089005E-04
(PID.TID 0000.0001) %MON dynstat_eta_del2             =   5.7117457998584E-08
(PID.TID 0000.0001) %MON dynstat_uvel_max             =   1.3550098330491E-02
(PID.TID 0000.0001) %MON dynstat_uvel_min             =  -2.5771848082780E-02
(PID.TID 0000.0001) %MON dynstat_uvel_mean            =   4.2899777388398E-05
(PID.TID 0000.0001) %MON dynstat_uvel_sd              =   5.4995917984959E-04
(PID.TID 0000.0001) %MON dynstat_uvel_del2            =   9.7640269844147E-08
(PID.TID 0000.0001) %MON dynstat_vvel_max             =   8.8099926027991E-03
(PID.TID 0000.0001) %MON dynstat_vvel_min             =  -8.6789661076732E-02
(PID.TID 0000.0001) %MON dynstat_vvel_mean            =  -1.8761718011666E-05
(PID.TID 0000.0001) %MON dynstat_vvel_sd              =   3.5301938580106E-03
(PID.TID 0000.0001) %MON dynstat_vvel_del2            =   9.9171830313573E-08
(PID.TID 0000.0001) %MON dynstat_wvel_max             =   2.3588316419767E-05
(PID.TID 0000.0001) %MON dynstat_wvel_min             =  -7.5228245055569E-06
(PID.TID 0000.0001) %MON dynstat_wvel_mean            =   1.6132244767313E-07
(PID.TID 0000.0001) %MON dynstat_wvel_sd              =   1.1267308324514E-06
(PID.TID 0000.0001) %MON dynstat_wvel_del2            =   5.2165987542800E-10
(PID.TID 0000.0001) %MON dynstat_theta_max            =   1.6578717294761E+01
(PID.TID 0000.0001) %MON dynstat_theta_min            =   4.1846023159908E+00
(PID.TID 0000.0001) %MON dynstat_theta_mean           =   7.5988681031400E+00
(PID.TID 0000.0001) %MON dynstat_theta_sd             =   3.5908630260721E+00
(PID.TID 0000.0001) %MON dynstat_theta_del2           =   2.2031798647265E-08
(PID.TID 0000.0001) %MON dynstat_salt_max             =   3.4476099284244E+01
(PID.TID 0000.0001) %MON dynstat_salt_min             =   3.3629999999993E+01
(PID.TID 0000.0001) %MON dynstat_salt_mean            =   3.4188927725028E+01
(PID.TID 0000.0001) %MON dynstat_salt_sd              =   2.7007074414526E-01
(PID.TID 0000.0001) %MON dynstat_salt_del2            =   8.4704639868801E-10
(PID.TID 0000.0001) %MON trAdv_CFL_u_max              =   6.7489210575892E-04
(PID.TID 0000.0001) %MON trAdv_CFL_v_max              =   2.6098835101183E-03
(PID.TID 0000.0001) %MON trAdv_CFL_w_max              =   5.0540610913502E-04
(PID.TID 0000.0001) %MON advcfl_uvel_max              =   7.7153510463094E-04
(PID.TID 0000.0001) %MON advcfl_vvel_max              =   2.5915097365402E-03
(PID.TID 0000.0001) %MON advcfl_wvel_max              =   5.2856161908490E-04
(PID.TID 0000.0001) %MON advcfl_W_hf_max              =   5.5258714722512E-04
(PID.TID 0000.0001) %MON pe_b_mean                    =   8.3705502785562E-10
(PID.TID 0000.0001) %MON ke_max                       =   3.8963922195384E-03
(PID.TID 0000.0001) %MON ke_mean                      =   6.3690030029981E-06
(PID.TID 0000.0001) %MON ke_vol                       =   8.2635254160858E+14
(PID.TID 0000.0001) %MON vort_r_min                   =  -5.9279777201991E-06
(PID.TID 0000.0001) %MON vort_r_max                   =   2.1640402819081E-06
(PID.TID 0000.0001) %MON vort_a_mean                  =   6.9142466381008E-04
(PID.TID 0000.0001) %MON vort_a_sd                    =   1.4195711526430E-06
(PID.TID 0000.0001) %MON vort_p_mean                  =   6.9569812303954E-04
(PID.TID 0000.0001) %MON vort_p_sd                    =   9.4064292976990E-05
(PID.TID 0000.0001) %MON surfExpan_theta_mean         =   2.4650026607924E-13
(PID.TID 0000.0001) %MON surfExpan_salt_mean          =  -5.1584121399420E-21
(PID.TID 0000.0001) // =======================================================
(PID.TID 0000.0001) // End MONITOR dynamic field statistics
(PID.TID 0000.0001) // =======================================================
(PID.TID 0000.0001) // =======================================================
(PID.TID 0000.0001) // Begin OBCS MONITOR field statistics
(PID.TID 0000.0001) // =======================================================
(PID.TID 0000.0001) %MON obc_S_vVel_max               =   4.4595556536410E-04
(PID.TID 0000.0001) %MON obc_S_vVel_min               =  -8.3106886939628E-02
(PID.TID 0000.0001) %MON obc_S_vVel_mean              =  -6.8909673151528E-20
(PID.TID 0000.0001) %MON obc_S_vVel_sd                =   3.7421474790455E-03
(PID.TID 0000.0001) %MON obc_S_vVel_Int               =  -1.1700862501129E-10
(PID.TID 0000.0001) // =======================================================
(PID.TID 0000.0001) // End OBCS MONITOR field statistics
(PID.TID 0000.0001) // =======================================================
 EXTERNAL_FIELDS_LOAD,       960 : iP,iLd,i0,i1=   48   49   48   49 ; Wght=  0.5000000000  0.5000000000
 cg2d: Sum(rhs),rhsMax =  -2.99849034490762E-12  6.73720966763260E-04
 EXTERNAL_FIELDS_LOAD,       961 : iP,iLd,i0,i1=   48   49   48   49 ; Wght=  0.4500000000  0.5500000000
 cg2d: Sum(rhs),rhsMax =   0.00000000000000E+00  6.59843456022919E-04
 EXTERNAL_FIELDS_LOAD,       962 : iP,iLd,i0,i1=   48   49   48   49 ; Wght=  0.4000000000  0.6000000000
 cg2d: Sum(rhs),rhsMax =  -1.22213350550737E-12  6.44026210994524E-04
 EXTERNAL_FIELDS_LOAD,       963 : iP,iLd,i0,i1=   48   49   48   49 ; Wght=  0.3500000000  0.6500000000
 cg2d: Sum(rhs),rhsMax =  -2.13162820728030E-12  6.26307402656369E-04
 EXTERNAL_FIELDS_LOAD,       964 : iP,iLd,i0,i1=   48   49   48   49 ; Wght=  0.3000000000  0.7000000000
 cg2d: Sum(rhs),rhsMax =  -2.51532128459075E-12  6.06731074909154E-04
 EXTERNAL_FIELDS_LOAD,       965 : iP,iLd,i0,i1=   48   49   48   49 ; Wght=  0.2500000000  0.7500000000
 cg2d: Sum(rhs),rhsMax =  -1.23634436022257E-12  5.85347117359036E-04
 EXTERNAL_FIELDS_LOAD,       966 : iP,iLd,i0,i1=   48   49   48   49 ; Wght=  0.2000000000  0.8000000000
 cg2d: Sum(rhs),rhsMax =  -2.71427325060358E-12  5.62211218783392E-04
 EXTERNAL_FIELDS_LOAD,       967 : iP,iLd,i0,i1=   48   49   48   49 ; Wght=  0.1500000000  0.8500000000
 cg2d: Sum(rhs),rhsMax =  -3.41060513164848E-13  5.37384797947033E-04
 EXTERNAL_FIELDS_LOAD,       968 : iP,iLd,i0,i1=   48   49   48   49 ; Wght=  0.1000000000  0.9000000000
 cg2d: Sum(rhs),rhsMax =  -1.57740487338742E-12  5.10934912086737E-04
 EXTERNAL_FIELDS_LOAD,       969 : iP,iLd,i0,i1=   48   49   48   49 ; Wght=  0.0500000000  0.9500000000
 cg2d: Sum(rhs),rhsMax =  -1.40687461680500E-12  4.82934141443589E-04
 EXTERNAL_FIELDS_LOAD,       970 : iP,iLd,i0,i1=   48   49   49   50 ; Wght=  1.0000000000  0.0000000000
 EXTERNAL_FIELDS_LOAD, it=       970 : Reading new data, i0,i1=   49   50 (prev=   48   49 )
(PID.TID 0000.0001)  MDS_READ_FIELD: opening global file: ../input/merid_halfgauss2p5hr_272x320.bin
(PID.TID 0000.0001)  MDS_READ_FIELD: opening global file: ../input/merid_halfgauss2p5hr_272x320.bin
 cg2d: Sum(rhs),rhsMax =  -1.05160324892495E-12  4.53460449257426E-04
 EXTERNAL_FIELDS_LOAD,       971 : iP,iLd,i0,i1=   49   50   49   50 ; Wght=  0.9500000000  0.0500000000
 cg2d: Sum(rhs),rhsMax =  -2.65742983174277E-12  4.22597017811784E-04
 EXTERNAL_FIELDS_LOAD,       972 : iP,iLd,i0,i1=   49   50   49   50 ; Wght=  0.9000000000  0.1000000000
 cg2d: Sum(rhs),rhsMax =  -2.55795384873636E-12  3.90432058614904E-04
 EXTERNAL_FIELDS_LOAD,       973 : iP,iLd,i0,i1=   49   50   49   50 ; Wght=  0.8500000000  0.1500000000
 cg2d: Sum(rhs),rhsMax =  -2.99849034490762E-12  3.57058598843716E-04
 EXTERNAL_FIELDS_LOAD,       974 : iP,iLd,i0,i1=   49   50   49   50 ; Wght=  0.8000000000  0.2000000000
 cg2d: Sum(rhs),rhsMax =  -2.87059265247080E-12  3.22576009580261E-04
 EXTERNAL_FIELDS_LOAD,       975 : iP,iLd,i0,i1=   49   50   49   50 ; Wght=  0.7500000000  0.2500000000
 cg2d: Sum(rhs),rhsMax =  -3.22586402035085E-12  2.87085019562233E-04
 EXTERNAL_FIELDS_LOAD,       976 : iP,iLd,i0,i1=   49   50   49   50 ; Wght=  0.7000000000  0.3000000000
 cg2d: Sum(rhs),rhsMax =  -3.33955085807247E-12  2.50691081778085E-04
 EXTERNAL_FIELDS_LOAD,       977 : iP,iLd,i0,i1=   49   50   49   50 ; Wght=  0.6500000000  0.3500000000
 cg2d: Sum(rhs),rhsMax =  -4.71800376544707E-12  2.14569031961359E-04
 EXTERNAL_FIELDS_LOAD,       978 : iP,iLd,i0,i1=   49   50   49   50 ; Wght=  0.6000000000  0.4000000000
 cg2d: Sum(rhs),rhsMax =  -3.68061137123732E-12  1.77800985622710E-04
 EXTERNAL_FIELDS_LOAD,       979 : iP,iLd,i0,i1=   49   50   49   50 ; Wght=  0.5500000000  0.4500000000
 cg2d: Sum(rhs),rhsMax =  -5.85487214266323E-12  1.40323168666819E-04
(PID.TID 0000.0001)      cg2d_init_res =   1.07316480175761E+01
(PID.TID 0000.0001)      cg2d_iters(min,last) =      -1      40
(PID.TID 0000.0001)      cg2d_last_res =   7.38905090758006E-08
(PID.TID 0000.0001) // =======================================================
(PID.TID 0000.0001) // Begin MONITOR dynamic field statistics
(PID.TID 0000.0001) // =======================================================
(PID.TID 0000.0001) %MON time_tsnumber                =                   980
(PID.TID 0000.0001) %MON time_secondsf                =   5.8800000000000E+04
(PID.TID 0000.0001) %MON dynstat_eta_max              =   1.2252799667560E-04
(PID.TID 0000.0001) %MON dynstat_eta_min              =  -6.4608788932265E-05
(PID.TID 0000.0001) %MON dynstat_eta_mean             =   8.8468453955607E-20
(PID.TID 0000.0001) %MON dynstat_eta_sd               =   5.5349082313222E-05
(PID.TID 0000.0001) %MON dynstat_eta_del2             =   1.4912061519424E-08
(PID.TID 0000.0001) %MON dynstat_uvel_max             =   5.5429181485584E-03
(PID.TID 0000.0001) %MON dynstat_uvel_min             =  -7.6816890747889E-02
(PID.TID 0000.0001) %MON dynstat_uvel_mean            =   6.8334635144621E-06
(PID.TID 0000.0001) %MON dynstat_uvel_sd              =   2.9176901187906E-03
(PID.TID 0000.0001) %MON dynstat_uvel_del2            =   9.2423275492688E-08
(PID.TID 0000.0001) %MON dynstat_vvel_max             =   7.8461019200739E-03
(PID.TID 0000.0001) %MON dynstat_vvel_min             =  -6.3607088018195E-02
(PID.TID 0000.0001) %MON dynstat_vvel_mean            =  -5.8776476386076E-05
(PID.TID 0000.0001) %MON dynstat_vvel_sd              =   2.0420152707253E-03
(PID.TID 0000.0001) %MON dynstat_vvel_del2            =   9.9458977998843E-08
(PID.TID 0000.0001) %MON dynstat_wvel_max             =   1.6214872414235E-05
(PID.TID 0000.0001) %MON dynstat_wvel_min             =  -1.0593622535094E-05
(PID.TID 0000.0001) %MON dynstat_wvel_mean            =   1.2811268839459E-07
(PID.TID 0000.0001) %MON dynstat_wvel_sd              =   6.9742369363092E-07
(PID.TID 0000.0001) %MON dynstat_wvel_del2            =   4.2502736484331E-10
(PID.TID 0000.0001) %MON dynstat_theta_max            =   1.6578668780587E+01
(PID.TID 0000.0001) %MON dynstat_theta_min            =   4.1846008061431E+00
(PID.TID 0000.0001) %MON dynstat_theta_mean           =   7.5988648732457E+00
(PID.TID 0000.0001) %MON dynstat_theta_sd             =   3.5908582444670E+00
(PID.TID 0000.0001) %MON dynstat_theta_del2           =   3.2649124423113E-08
(PID.TID 0000.0001) %MON dynstat_salt_max             =   3.4476099438134E+01
(PID.TID 0000.0001) %MON dynstat_salt_min             =   3.3629999999993E+01
(PID.TID 0000.0001) %MON dynstat_salt_mean            =   3.4188927921400E+01
(PID.TID 0000.0001) %MON dynstat_salt_sd              =   2.7007052110644E-01
(PID.TID 0000.0001) %MON dynstat_salt_del2            =   1.3519473786979E-09
(PID.TID 0000.0001) %MON trAdv_CFL_u_max              =   2.2498972301323E-03
(PID.TID 0000.0001) %MON trAdv_CFL_v_max              =   1.9650099335291E-03
(PID.TID 0000.0001) %MON trAdv_CFL_w_max              =   4.1638778937149E-04
(PID.TID 0000.0001) %MON advcfl_uvel_max              =   2.2996768337246E-03
(PID.TID 0000.0001) %MON advcfl_vvel_max              =   1.8992859963629E-03
(PID.TID 0000.0001) %MON advcfl_wvel_max              =   4.2299667167569E-04
(PID.TID 0000.0001) %MON advcfl_W_hf_max              =   4.4222379311549E-04
(PID.TID 0000.0001) %MON pe_b_mean                    =   1.5697122177757E-11
(PID.TID 0000.0001) %MON ke_max                       =   5.3427817687550E-03
(PID.TID 0000.0001) %MON ke_mean                      =   6.3346503434075E-06
(PID.TID 0000.0001) %MON ke_vol                       =   8.2635254160858E+14
(PID.TID 0000.0001) %MON vort_r_min                   =  -7.4332452720480E-06
(PID.TID 0000.0001) %MON vort_r_max                   =   2.6383676033199E-05
(PID.TID 0000.0001) %MON vort_a_mean                  =   6.9142466381008E-04
(PID.TID 0000.0001) %MON vort_a_sd                    =   1.4216346209565E-06
(PID.TID 0000.0001) %MON vort_p_mean                  =   6.9569812303954E-04
(PID.TID 0000.0001) %MON vort_p_sd                    =   9.4067717231120E-05
(PID.TID 0000.0001) %MON surfExpan_theta_mean         =   4.6076331873057E-13
(PID.TID 0000.0001) %MON surfExpan_salt_mean          =   1.2811742569791E-21
(PID.TID 0000.0001) // =======================================================
(PID.TID 0000.0001) // End MONITOR dynamic field statistics
(PID.TID 0000.0001) // =======================================================
(PID.TID 0000.0001) // =======================================================
(PID.TID 0000.0001) // Begin OBCS MONITOR field statistics
(PID.TID 0000.0001) // =======================================================
(PID.TID 0000.0001) %MON obc_S_vVel_max               =   3.6809061828713E-04
(PID.TID 0000.0001) %MON obc_S_vVel_min               =  -6.3607088018195E-02
(PID.TID 0000.0001) %MON obc_S_vVel_mean              =   1.5127279091712E-20
(PID.TID 0000.0001) %MON obc_S_vVel_sd                =   2.8647496670754E-03
(PID.TID 0000.0001) %MON obc_S_vVel_Int               =   2.5686119897728E-11
(PID.TID 0000.0001) // =======================================================
(PID.TID 0000.0001) // End OBCS MONITOR field statistics
(PID.TID 0000.0001) // =======================================================
 EXTERNAL_FIELDS_LOAD,       980 : iP,iLd,i0,i1=   49   50   49   50 ; Wght=  0.5000000000  0.5000000000
 cg2d: Sum(rhs),rhsMax =  -7.17648163117701E-12  1.02266953144877E-04
 EXTERNAL_FIELDS_LOAD,       981 : iP,iLd,i0,i1=   49   50   49   50 ; Wght=  0.4500000000  0.5500000000
 cg2d: Sum(rhs),rhsMax =  -1.21076482173521E-11  6.37668627904801E-05
 EXTERNAL_FIELDS_LOAD,       982 : iP,iLd,i0,i1=   49   50   49   50 ; Wght=  0.4000000000  0.6000000000
 cg2d: Sum(rhs),rhsMax =  -9.85167503131379E-12  7.67607246698723E-05
 EXTERNAL_FIELDS_LOAD,       983 : iP,iLd,i0,i1=   49   50   49   50 ; Wght=  0.3500000000  0.6500000000
 cg2d: Sum(rhs),rhsMax =  -6.52988774163532E-12  1.12781499059264E-04
 EXTERNAL_FIELDS_LOAD,       984 : iP,iLd,i0,i1=   49   50   49   50 ; Wght=  0.3000000000  0.7000000000
 cg2d: Sum(rhs),rhsMax =  -4.56168436357984E-12  1.48423283242701E-04
 EXTERNAL_FIELDS_LOAD,       985 : iP,iLd,i0,i1=   49   50   49   50 ; Wght=  0.2500000000  0.7500000000
 cg2d: Sum(rhs),rhsMax =  -4.00746102968697E-12  1.83575282639302E-04
 EXTERNAL_FIELDS_LOAD,       986 : iP,iLd,i0,i1=   49   50   49   50 ; Wght=  0.2000000000  0.8000000000
 cg2d: Sum(rhs),rhsMax =  -2.04636307898909E-12  2.18390200089349E-04
 EXTERNAL_FIELDS_LOAD,       987 : iP,iLd,i0,i1=   49   50   49   50 ; Wght=  0.1500000000  0.8500000000
 cg2d: Sum(rhs),rhsMax =  -3.45323769579409E-12  2.56262743416562E-04
 EXTERNAL_FIELDS_LOAD,       988 : iP,iLd,i0,i1=   49   50   49   50 ; Wght=  0.1000000000  0.9000000000
 cg2d: Sum(rhs),rhsMax =  -5.13011855218792E-12  2.93475680863979E-04
 EXTERNAL_FIELDS_LOAD,       989 : iP,iLd,i0,i1=   49   50   49   50 ; Wght=  0.0500000000  0.9500000000
 cg2d: Sum(rhs),rhsMax =  -3.14059889205964E-12  3.29907791989950E-04
 EXTERNAL_FIELDS_LOAD,       990 : iP,iLd,i0,i1=   49   50   50   51 ; Wght=  1.0000000000  0.0000000000
 EXTERNAL_FIELDS_LOAD, it=       990 : Reading new data, i0,i1=   50   51 (prev=   49   50 )
(PID.TID 0000.0001)  MDS_READ_FIELD: opening global file: ../input/merid_halfgauss2p5hr_272x320.bin
(PID.TID 0000.0001)  MDS_READ_FIELD: opening global file: ../input/merid_halfgauss2p5hr_272x320.bin
 cg2d: Sum(rhs),rhsMax =  -1.79056769411545E-12  3.65439692761813E-04
 EXTERNAL_FIELDS_LOAD,       991 : iP,iLd,i0,i1=   50   51   50   51 ; Wght=  0.9500000000  0.0500000000
 cg2d: Sum(rhs),rhsMax =  -2.33058017329313E-12  3.99954287560669E-04
 EXTERNAL_FIELDS_LOAD,       992 : iP,iLd,i0,i1=   50   51   50   51 ; Wght=  0.9000000000  0.1000000000
 cg2d: Sum(rhs),rhsMax =  -1.98951966012828E-12  4.33337216499922E-04
 EXTERNAL_FIELDS_LOAD,       993 : iP,iLd,i0,i1=   50   51   50   51 ; Wght=  0.8500000000  0.1500000000
 cg2d: Sum(rhs),rhsMax =  -2.21689333557151E-12  4.65477295707501E-04
 EXTERNAL_FIELDS_LOAD,       994 : iP,iLd,i0,i1=   50   51   50   51 ; Wght=  0.8000000000  0.2000000000
 cg2d: Sum(rhs),rhsMax =  -1.59161572810262E-12  4.96266947776537E-04
 EXTERNAL_FIELDS_LOAD,       995 : iP,iLd,i0,i1=   50   51   50   51 ; Wght=  0.7500000000  0.2500000000
 cg2d: Sum(rhs),rhsMax =  -1.70530256582424E-12  5.25602621507054E-04
 EXTERNAL_FIELDS_LOAD,       996 : iP,iLd,i0,i1=   50   51   50   51 ; Wght=  0.7000000000  0.3000000000
 cg2d: Sum(rhs),rhsMax =  -7.81597009336110E-13  5.53385197084049E-04
 EXTERNAL_FIELDS_LOAD,       997 : iP,iLd,i0,i1=   50   51   50   51 ; Wght=  0.6500000000  0.3500000000
 cg2d: Sum(rhs),rhsMax =  -4.12114786740858E-13  5.79520375379271E-04
 EXTERNAL_FIELDS_LOAD,       998 : iP,iLd,i0,i1=   50   51   50   51 ; Wght=  0.6000000000  0.4000000000
 cg2d: Sum(rhs),rhsMax =  -7.38964445190504E-13  6.03919050726817E-04
 EXTERNAL_FIELDS_LOAD,       999 : iP,iLd,i0,i1=   50   51   50   51 ; Wght=  0.5500000000  0.4500000000
 cg2d: Sum(rhs),rhsMax =  -2.44426701101474E-12  6.26497661323533E-04
(PID.TID 0000.0001)      cg2d_init_res =   1.36735892116981E+00
(PID.TID 0000.0001)      cg2d_iters(min,last) =      -1      36
(PID.TID 0000.0001)      cg2d_last_res =   6.88169418816178E-08
(PID.TID 0000.0001) // =======================================================
(PID.TID 0000.0001) // Begin MONITOR dynamic field statistics
(PID.TID 0000.0001) // =======================================================
(PID.TID 0000.0001) %MON time_tsnumber                =                  1000
(PID.TID 0000.0001) %MON time_secondsf                =   6.0000000000000E+04
(PID.TID 0000.0001) %MON dynstat_eta_max              =   4.9916252849614E-04
(PID.TID 0000.0001) %MON dynstat_eta_min              =  -5.2440967000389E-04
(PID.TID 0000.0001) %MON dynstat_eta_mean             =   1.0788835848245E-19
(PID.TID 0000.0001) %MON dynstat_eta_sd               =   3.4640627021882E-04
(PID.TID 0000.0001) %MON dynstat_eta_del2             =   1.5848256441966E-08
(PID.TID 0000.0001) %MON dynstat_uvel_max             =   8.7664480161641E-03
(PID.TID 0000.0001) %MON dynstat_uvel_min             =  -8.5312530745673E-02
(PID.TID 0000.0001) %MON dynstat_uvel_mean            =  -3.5848786550146E-05
(PID.TID 0000.0001) %MON dynstat_uvel_sd              =   3.4499982213935E-03
(PID.TID 0000.0001) %MON dynstat_uvel_del2            =   1.0300833940933E-07
(PID.TID 0000.0001) %MON dynstat_vvel_max             =   3.2932094357292E-02
(PID.TID 0000.0001) %MON dynstat_vvel_min             =  -9.1527052403282E-03
(PID.TID 0000.0001) %MON dynstat_vvel_mean            =  -3.3321645415515E-05
(PID.TID 0000.0001) %MON dynstat_vvel_sd              =   8.3327780523670E-04
(PID.TID 0000.0001) %MON dynstat_vvel_del2            =   9.1534255967745E-08
(PID.TID 0000.0001) %MON dynstat_wvel_max             =   7.2572521884245E-06
(PID.TID 0000.0001) %MON dynstat_wvel_min             =  -1.4203399433638E-05
(PID.TID 0000.0001) %MON dynstat_wvel_mean            =   1.2353904460107E-08
(PID.TID 0000.0001) %MON dynstat_wvel_sd              =   7.3830334501209E-07
(PID.TID 0000.0001) %MON dynstat_wvel_del2            =   4.7007816013419E-10
(PID.TID 0000.0001) %MON dynstat_theta_max            =   1.6578627855941E+01
(PID.TID 0000.0001) %MON dynstat_theta_min            =   4.1846015799065E+00
(PID.TID 0000.0001) %MON dynstat_theta_mean           =   7.5988633742026E+00
(PID.TID 0000.0001) %MON dynstat_theta_sd             =   3.5908554161935E+00
(PID.TID 0000.0001) %MON dynstat_theta_del2           =   2.9527985381131E-08
(PID.TID 0000.0001) %MON dynstat_salt_max             =   3.4476099359266E+01
(PID.TID 0000.0001) %MON dynstat_salt_min             =   3.3629999999993E+01
(PID.TID 0000.0001) %MON dynstat_salt_mean            =   3.4188928014459E+01
(PID.TID 0000.0001) %MON dynstat_salt_sd              =   2.7007038611419E-01
(PID.TID 0000.0001) %MON dynstat_salt_del2            =   1.2568821373462E-09
(PID.TID 0000.0001) %MON trAdv_CFL_u_max              =   2.5785982907751E-03
(PID.TID 0000.0001) %MON trAdv_CFL_v_max              =   8.9101287098280E-04
(PID.TID 0000.0001) %MON trAdv_CFL_w_max              =   3.7735117100246E-04
(PID.TID 0000.0001) %MON advcfl_uvel_max              =   2.5540116787953E-03
(PID.TID 0000.0001) %MON advcfl_vvel_max              =   9.8334112741988E-04
(PID.TID 0000.0001) %MON advcfl_wvel_max              =   3.6811259629333E-04
(PID.TID 0000.0001) %MON advcfl_W_hf_max              =   3.8484498703394E-04
(PID.TID 0000.0001) %MON pe_b_mean                    =   6.1485212478380E-10
(PID.TID 0000.0001) %MON ke_max                       =   5.6229366274018E-03
(PID.TID 0000.0001) %MON ke_mean                      =   6.2995986935670E-06
(PID.TID 0000.0001) %MON ke_vol                       =   8.2635254160858E+14
(PID.TID 0000.0001) %MON vort_r_min                   =  -8.7908636333664E-06
(PID.TID 0000.0001) %MON vort_r_max                   =   4.1377390095301E-05
(PID.TID 0000.0001) %MON vort_a_mean                  =   6.9142466381008E-04
(PID.TID 0000.0001) %MON vort_a_sd                    =   1.4246324749538E-06
(PID.TID 0000.0001) %MON vort_p_mean                  =   6.9569812303954E-04
(PID.TID 0000.0001) %MON vort_p_sd                    =   9.4069513212370E-05
(PID.TID 0000.0001) %MON surfExpan_theta_mean         =   2.7973431313562E-14
(PID.TID 0000.0001) %MON surfExpan_salt_mean          =  -3.1692205304219E-21
(PID.TID 0000.0001) // =======================================================
(PID.TID 0000.0001) // End MONITOR dynamic field statistics
(PID.TID 0000.0001) // =======================================================
(PID.TID 0000.0001) // =======================================================
(PID.TID 0000.0001) // Begin OBCS MONITOR field statistics
(PID.TID 0000.0001) // =======================================================
(PID.TID 0000.0001) %MON obc_S_vVel_max               =   5.1668338506684E-05
(PID.TID 0000.0001) %MON obc_S_vVel_min               =  -2.9671304026167E-03
(PID.TID 0000.0001) %MON obc_S_vVel_mean              =  -4.5298145551255E-22
(PID.TID 0000.0001) %MON obc_S_vVel_sd                =   1.3515017682811E-04
(PID.TID 0000.0001) %MON obc_S_vVel_Int               =  -7.6916251146031E-13
(PID.TID 0000.0001) // =======================================================
(PID.TID 0000.0001) // End OBCS MONITOR field statistics
(PID.TID 0000.0001) // =======================================================
 EXTERNAL_FIELDS_LOAD,      1000 : iP,iLd,i0,i1=   50   51   50   51 ; Wght=  0.5000000000  0.5000000000
 cg2d: Sum(rhs),rhsMax =  -1.09423581307055E-12  6.47178520389547E-04
 EXTERNAL_FIELDS_LOAD,      1001 : iP,iLd,i0,i1=   50   51   50   51 ; Wght=  0.4500000000  0.5500000000
 cg2d: Sum(rhs),rhsMax =  -9.23705556488130E-13  6.65890123760141E-04
 EXTERNAL_FIELDS_LOAD,      1002 : iP,iLd,i0,i1=   50   51   50   51 ; Wght=  0.4000000000  0.6000000000
 cg2d: Sum(rhs),rhsMax =  -1.12265752250096E-12  6.82567430332779E-04
 EXTERNAL_FIELDS_LOAD,      1003 : iP,iLd,i0,i1=   50   51   50   51 ; Wght=  0.3500000000  0.6500000000
 cg2d: Sum(rhs),rhsMax =  -2.23110419028671E-12  6.97152121059422E-04
 EXTERNAL_FIELDS_LOAD,      1004 : iP,iLd,i0,i1=   50   51   50   51 ; Wght=  0.3000000000  0.7000000000
 cg2d: Sum(rhs),rhsMax =  -9.09494701772928E-13  7.09592826422756E-04
 EXTERNAL_FIELDS_LOAD,      1005 : iP,iLd,i0,i1=   50   51   50   51 ; Wght=  0.2500000000  0.7500000000
 cg2d: Sum(rhs),rhsMax =  -1.76214598468505E-12  7.19845326670208E-04
 EXTERNAL_FIELDS_LOAD,      1006 : iP,iLd,i0,i1=   50   51   50   51 ; Wght=  0.2000000000  0.8000000000
 cg2d: Sum(rhs),rhsMax =  -1.16529008664656E-12  7.27872725140601E-04
 EXTERNAL_FIELDS_LOAD,      1007 : iP,iLd,i0,i1=   50   51   50   51 ; Wght=  0.1500000000  0.8500000000
 cg2d: Sum(rhs),rhsMax =  -1.10844666778576E-12  7.33645587236647E-04
 EXTERNAL_FIELDS_LOAD,      1008 : iP,iLd,i0,i1=   50   51   50   51 ; Wght=  0.1000000000  0.9000000000
 cg2d: Sum(rhs),rhsMax =  -2.21689333557151E-12  7.37142052168052E-04
 EXTERNAL_FIELDS_LOAD,      1009 : iP,iLd,i0,i1=   50   51   50   51 ; Wght=  0.0500000000  0.9500000000
 cg2d: Sum(rhs),rhsMax =  -7.81597009336110E-13  7.38347915294445E-04
 EXTERNAL_FIELDS_LOAD,      1010 : iP,iLd,i0,i1=   50   51   51   52 ; Wght=  1.0000000000  0.0000000000
 EXTERNAL_FIELDS_LOAD, it=      1010 : Reading new data, i0,i1=   51   52 (prev=   50   51 )
(PID.TID 0000.0001)  MDS_READ_FIELD: opening global file: ../input/merid_halfgauss2p5hr_272x320.bin
(PID.TID 0000.0001)  MDS_READ_FIELD: opening global file: ../input/merid_halfgauss2p5hr_272x320.bin
 cg2d: Sum(rhs),rhsMax =  -1.35003119794419E-12  7.37256674615970E-04
 EXTERNAL_FIELDS_LOAD,      1011 : iP,iLd,i0,i1=   51   52   51   52 ; Wght=  0.9500000000  0.0500000000
 cg2d: Sum(rhs),rhsMax =  -6.53699316899292E-13  7.33869552449367E-04
 EXTERNAL_FIELDS_LOAD,      1012 : iP,iLd,i0,i1=   51   52   51   52 ; Wght=  0.9000000000  0.1000000000
 cg2d: Sum(rhs),rhsMax =  -2.84217094304040E-14  7.28195476830776E-04
 EXTERNAL_FIELDS_LOAD,      1013 : iP,iLd,i0,i1=   51   52   51   52 ; Wght=  0.8500000000  0.1500000000
 cg2d: Sum(rhs),rhsMax =  -1.27897692436818E-12  7.20251048356923E-04
 EXTERNAL_FIELDS_LOAD,      1014 : iP,iLd,i0,i1=   51   52   51   52 ; Wght=  0.8000000000  0.2000000000
 cg2d: Sum(rhs),rhsMax =  -9.66338120633736E-13  7.10060459406531E-04
 EXTERNAL_FIELDS_LOAD,      1015 : iP,iLd,i0,i1=   51   52   51   52 ; Wght=  0.7500000000  0.2500000000
 cg2d: Sum(rhs),rhsMax =  -1.16529008664656E-12  6.97655395756290E-04
 EXTERNAL_FIELDS_LOAD,      1016 : iP,iLd,i0,i1=   51   52   51   52 ; Wght=  0.7000000000  0.3000000000
 cg2d: Sum(rhs),rhsMax =  -2.03215222427389E-12  6.83074905775371E-04
 EXTERNAL_FIELDS_LOAD,      1017 : iP,iLd,i0,i1=   51   52   51   52 ; Wght=  0.6500000000  0.3500000000
 cg2d: Sum(rhs),rhsMax =  -9.94759830064140E-14  6.66365241271568E-04
 EXTERNAL_FIELDS_LOAD,      1018 : iP,iLd,i0,i1=   51   52   51   52 ; Wght=  0.6000000000  0.4000000000
 cg2d: Sum(rhs),rhsMax =  -1.66267000167863E-12  6.47579675098624E-04
 EXTERNAL_FIELDS_LOAD,      1019 : iP,iLd,i0,i1=   51   52   51   52 ; Wght=  0.5500000000  0.4500000000
 cg2d: Sum(rhs),rhsMax =  -1.16529008664656E-12  6.26778291983263E-04
(PID.TID 0000.0001)      cg2d_init_res =   1.14361768823460E+00
(PID.TID 0000.0001)      cg2d_iters(min,last) =      -1      35
(PID.TID 0000.0001)      cg2d_last_res =   8.64229839217846E-08
(PID.TID 0000.0001) // =======================================================
(PID.TID 0000.0001) // Begin MONITOR dynamic field statistics
(PID.TID 0000.0001) // =======================================================
(PID.TID 0000.0001) %MON time_tsnumber                =                  1020
(PID.TID 0000.0001) %MON time_secondsf                =   6.1200000000000E+04
(PID.TID 0000.0001) %MON dynstat_eta_max              =   4.8788617398442E-04
(PID.TID 0000.0001) %MON dynstat_eta_min              =  -5.4122445539343E-04
(PID.TID 0000.0001) %MON dynstat_eta_mean             =   6.2575247919820E-20
(PID.TID 0000.0001) %MON dynstat_eta_sd               =   3.5704048788013E-04
(PID.TID 0000.0001) %MON dynstat_eta_del2             =   2.2524890430491E-08
(PID.TID 0000.0001) %MON dynstat_uvel_max             =   7.5791629642790E-03
(PID.TID 0000.0001) %MON dynstat_uvel_min             =  -5.7048924772246E-02
(PID.TID 0000.0001) %MON dynstat_uvel_mean            =  -3.8147578525229E-05
(PID.TID 0000.0001) %MON dynstat_uvel_sd              =   1.7634227707071E-03
(PID.TID 0000.0001) %MON dynstat_uvel_del2            =   1.0052637338921E-07
(PID.TID 0000.0001) %MON dynstat_vvel_max             =   8.0458757030430E-02
(PID.TID 0000.0001) %MON dynstat_vvel_min             =  -5.3421385448348E-03
(PID.TID 0000.0001) %MON dynstat_vvel_mean            =   2.8046433881830E-05
(PID.TID 0000.0001) %MON dynstat_vvel_sd              =   3.0717988718080E-03
(PID.TID 0000.0001) %MON dynstat_vvel_del2            =   9.0715288507471E-08
(PID.TID 0000.0001) %MON dynstat_wvel_max             =   6.7476105302939E-06
(PID.TID 0000.0001) %MON dynstat_wvel_min             =  -2.1296193280619E-05
(PID.TID 0000.0001) %MON dynstat_wvel_mean            =  -1.0961641360518E-07
(PID.TID 0000.0001) %MON dynstat_wvel_sd              =   1.0796969463970E-06
(PID.TID 0000.0001) %MON dynstat_wvel_del2            =   5.5461218809225E-10
(PID.TID 0000.0001) %MON dynstat_theta_max            =   1.6578603861949E+01
(PID.TID 0000.0001) %MON dynstat_theta_min            =   4.1846041171974E+00
(PID.TID 0000.0001) %MON dynstat_theta_mean           =   7.5988645507046E+00
(PID.TID 0000.0001) %MON dynstat_theta_sd             =   3.5908555352933E+00
(PID.TID 0000.0001) %MON dynstat_theta_del2           =   1.9484445637441E-08
(PID.TID 0000.0001) %MON dynstat_salt_max             =   3.4476099100655E+01
(PID.TID 0000.0001) %MON dynstat_salt_min             =   3.3629999999993E+01
(PID.TID 0000.0001) %MON dynstat_salt_mean            =   3.4188927945736E+01
(PID.TID 0000.0001) %MON dynstat_salt_sd              =   2.7007038444868E-01
(PID.TID 0000.0001) %MON dynstat_salt_del2            =   7.5250207539392E-10
(PID.TID 0000.0001) %MON trAdv_CFL_u_max              =   1.8645230206795E-03
(PID.TID 0000.0001) %MON trAdv_CFL_v_max              =   2.3613250648752E-03
(PID.TID 0000.0001) %MON trAdv_CFL_w_max              =   4.7774268001229E-04
(PID.TID 0000.0001) %MON advcfl_uvel_max              =   1.7906374090418E-03
(PID.TID 0000.0001) %MON advcfl_vvel_max              =   2.4024710967581E-03
(PID.TID 0000.0001) %MON advcfl_wvel_max              =   4.5913372778710E-04
(PID.TID 0000.0001) %MON advcfl_W_hf_max              =   4.8000344268651E-04
(PID.TID 0000.0001) %MON pe_b_mean                    =   6.5318187304482E-10
(PID.TID 0000.0001) %MON ke_max                       =   4.2613116455949E-03
(PID.TID 0000.0001) %MON ke_mean                      =   6.2666202212240E-06
(PID.TID 0000.0001) %MON ke_vol                       =   8.2635254160858E+14
(PID.TID 0000.0001) %MON vort_r_min                   =  -6.9785983592600E-06
(PID.TID 0000.0001) %MON vort_r_max                   =   2.9767712818557E-05
(PID.TID 0000.0001) %MON vort_a_mean                  =   6.9142466381008E-04
(PID.TID 0000.0001) %MON vort_a_sd                    =   1.4217660552905E-06
(PID.TID 0000.0001) %MON vort_p_mean                  =   6.9569812303954E-04
(PID.TID 0000.0001) %MON vort_p_sd                    =   9.4068508833057E-05
(PID.TID 0000.0001) %MON surfExpan_theta_mean         =   1.8175352260074E-13
(PID.TID 0000.0001) %MON surfExpan_salt_mean          =   9.7099522634203E-21
(PID.TID 0000.0001) // =======================================================
(PID.TID 0000.0001) // End MONITOR dynamic field statistics
(PID.TID 0000.0001) // =======================================================
(PID.TID 0000.0001) // =======================================================
(PID.TID 0000.0001) // Begin OBCS MONITOR field statistics
(PID.TID 0000.0001) // =======================================================
(PID.TID 0000.0001) %MON obc_S_vVel_max               =   5.9045716218120E-02
(PID.TID 0000.0001) %MON obc_S_vVel_min               =  -3.0716427396059E-04
(PID.TID 0000.0001) %MON obc_S_vVel_mean              =   5.1323949670775E-20
(PID.TID 0000.0001) %MON obc_S_vVel_sd                =   2.6602008524543E-03
(PID.TID 0000.0001) %MON obc_S_vVel_Int               =   8.7148066540976E-11
(PID.TID 0000.0001) // =======================================================
(PID.TID 0000.0001) // End OBCS MONITOR field statistics
(PID.TID 0000.0001) // =======================================================
 EXTERNAL_FIELDS_LOAD,      1020 : iP,iLd,i0,i1=   51   52   51   52 ; Wght=  0.5000000000  0.5000000000
 cg2d: Sum(rhs),rhsMax =  -1.80477854883065E-12  6.04027752324704E-04
 EXTERNAL_FIELDS_LOAD,      1021 : iP,iLd,i0,i1=   51   52   51   52 ; Wght=  0.4500000000  0.5500000000
 cg2d: Sum(rhs),rhsMax =  -2.30215846386272E-12  5.79401037285211E-04
 EXTERNAL_FIELDS_LOAD,      1022 : iP,iLd,i0,i1=   51   52   51   52 ; Wght=  0.4000000000  0.6000000000
 cg2d: Sum(rhs),rhsMax =  -2.64321897702757E-12  5.52977171595291E-04
 EXTERNAL_FIELDS_LOAD,      1023 : iP,iLd,i0,i1=   51   52   51   52 ; Wght=  0.3500000000  0.6500000000
 cg2d: Sum(rhs),rhsMax =  -2.88480350718601E-12  5.24840924405074E-04
 EXTERNAL_FIELDS_LOAD,      1024 : iP,iLd,i0,i1=   51   52   51   52 ; Wght=  0.3000000000  0.7000000000
 cg2d: Sum(rhs),rhsMax =  -2.57216470345156E-12  4.95085556956777E-04
 EXTERNAL_FIELDS_LOAD,      1025 : iP,iLd,i0,i1=   51   52   51   52 ; Wght=  0.2500000000  0.7500000000
 cg2d: Sum(rhs),rhsMax =  -2.60058641288197E-12  4.65271318308259E-04
 EXTERNAL_FIELDS_LOAD,      1026 : iP,iLd,i0,i1=   51   52   51   52 ; Wght=  0.2000000000  0.8000000000
 cg2d: Sum(rhs),rhsMax =  -1.23634436022257E-12  4.35459745264199E-04
 EXTERNAL_FIELDS_LOAD,      1027 : iP,iLd,i0,i1=   51   52   51   52 ; Wght=  0.1500000000  0.8500000000
 cg2d: Sum(rhs),rhsMax =  -2.61479726759717E-12  4.04321317765354E-04
 EXTERNAL_FIELDS_LOAD,      1028 : iP,iLd,i0,i1=   51   52   51   52 ; Wght=  0.1000000000  0.9000000000
 cg2d: Sum(rhs),rhsMax =  -2.31636931857793E-12  3.71960497942971E-04
 EXTERNAL_FIELDS_LOAD,      1029 : iP,iLd,i0,i1=   51   52   51   52 ; Wght=  0.0500000000  0.9500000000
 cg2d: Sum(rhs),rhsMax =  -3.95061761082616E-12  3.38485270740107E-04
 EXTERNAL_FIELDS_LOAD,      1030 : iP,iLd,i0,i1=   51   52   52   53 ; Wght=  1.0000000000  0.0000000000
 EXTERNAL_FIELDS_LOAD, it=      1030 : Reading new data, i0,i1=   52   53 (prev=   51   52 )
(PID.TID 0000.0001)  MDS_READ_FIELD: opening global file: ../input/merid_halfgauss2p5hr_272x320.bin
(PID.TID 0000.0001)  MDS_READ_FIELD: opening global file: ../input/merid_halfgauss2p5hr_272x320.bin
 cg2d: Sum(rhs),rhsMax =  -3.08375547319883E-12  3.04006753419730E-04
 EXTERNAL_FIELDS_LOAD,      1031 : iP,iLd,i0,i1=   52   53   52   53 ; Wght=  0.9500000000  0.0500000000
 cg2d: Sum(rhs),rhsMax =  -3.46744855050929E-12  2.68639314549046E-04
 EXTERNAL_FIELDS_LOAD,      1032 : iP,iLd,i0,i1=   52   53   52   53 ; Wght=  0.9000000000  0.1000000000
 cg2d: Sum(rhs),rhsMax =  -5.69855274079600E-12  2.32502208465441E-04
 EXTERNAL_FIELDS_LOAD,      1033 : iP,iLd,i0,i1=   52   53   52   53 ; Wght=  0.8500000000  0.1500000000
 cg2d: Sum(rhs),rhsMax =  -6.29540863883449E-12  1.95709799244274E-04
 EXTERNAL_FIELDS_LOAD,      1034 : iP,iLd,i0,i1=   52   53   52   53 ; Wght=  0.8000000000  0.2000000000
 cg2d: Sum(rhs),rhsMax =  -5.52802248421358E-12  1.58381714072798E-04
 EXTERNAL_FIELDS_LOAD,      1035 : iP,iLd,i0,i1=   52   53   52   53 ; Wght=  0.7500000000  0.2500000000
 cg2d: Sum(rhs),rhsMax =  -1.00612851383630E-11  1.20638706924142E-04
 EXTERNAL_FIELDS_LOAD,      1036 : iP,iLd,i0,i1=   52   53   52   53 ; Wght=  0.7000000000  0.3000000000
 cg2d: Sum(rhs),rhsMax =  -1.43813849717844E-11  8.26022563427878E-05
 EXTERNAL_FIELDS_LOAD,      1037 : iP,iLd,i0,i1=   52   53   52   53 ; Wght=  0.6500000000  0.3500000000
 cg2d: Sum(rhs),rhsMax =  -1.11519682377548E-11  1.05063622686482E-04
 EXTERNAL_FIELDS_LOAD,      1038 : iP,iLd,i0,i1=   52   53   52   53 ; Wght=  0.6000000000  0.4000000000
 cg2d: Sum(rhs),rhsMax =  -9.09494701772928E-12  1.33988529520691E-04
 EXTERNAL_FIELDS_LOAD,      1039 : iP,iLd,i0,i1=   52   53   52   53 ; Wght=  0.5500000000  0.4500000000
 cg2d: Sum(rhs),rhsMax =  -7.13384906703141E-12  1.62052605070203E-04
(PID.TID 0000.0001)      cg2d_init_res =   9.03828719936923E+00
(PID.TID 0000.0001)      cg2d_iters(min,last) =      -1      40
(PID.TID 0000.0001)      cg2d_last_res =   6.44163692712760E-08
(PID.TID 0000.0001) // =======================================================
(PID.TID 0000.0001) // Begin MONITOR dynamic field statistics
(PID.TID 0000.0001) // =======================================================
(PID.TID 0000.0001) %MON time_tsnumber                =                  1040
(PID.TID 0000.0001) %MON time_secondsf                =   6.2400000000000E+04
(PID.TID 0000.0001) %MON dynstat_eta_max              =   1.4342764475297E-04
(PID.TID 0000.0001) %MON dynstat_eta_min              =  -3.8659881124192E-05
(PID.TID 0000.0001) %MON dynstat_eta_mean             =   1.5077398097922E-19
(PID.TID 0000.0001) %MON dynstat_eta_sd               =   2.5925693436605E-05
(PID.TID 0000.0001) %MON dynstat_eta_del2             =   7.0123020828994E-09
(PID.TID 0000.0001) %MON dynstat_uvel_max             =   3.9671395167814E-02
(PID.TID 0000.0001) %MON dynstat_uvel_min             =  -5.3655890313781E-03
(PID.TID 0000.0001) %MON dynstat_uvel_mean            =   1.4015024324933E-06
(PID.TID 0000.0001) %MON dynstat_uvel_sd              =   1.1206220815645E-03
(PID.TID 0000.0001) %MON dynstat_uvel_del2            =   8.7564534336548E-08
(PID.TID 0000.0001) %MON dynstat_vvel_max             =   8.2724553065788E-02
(PID.TID 0000.0001) %MON dynstat_vvel_min             =  -8.3843916286067E-03
(PID.TID 0000.0001) %MON dynstat_vvel_mean            =   5.7044546957586E-05
(PID.TID 0000.0001) %MON dynstat_vvel_sd              =   3.3527657390388E-03
(PID.TID 0000.0001) %MON dynstat_vvel_del2            =   9.6514285311924E-08
(PID.TID 0000.0001) %MON dynstat_wvel_max             =   8.5909994118038E-06
(PID.TID 0000.0001) %MON dynstat_wvel_min             =  -2.1804937167425E-05
(PID.TID 0000.0001) %MON dynstat_wvel_mean            =  -1.6062446878533E-07
(PID.TID 0000.0001) %MON dynstat_wvel_sd              =   1.0005635697236E-06
(PID.TID 0000.0001) %MON dynstat_wvel_del2            =   4.9743060293289E-10
(PID.TID 0000.0001) %MON dynstat_theta_max            =   1.6578595674444E+01
(PID.TID 0000.0001) %MON dynstat_theta_min            =   4.1846055368749E+00
(PID.TID 0000.0001) %MON dynstat_theta_mean           =   7.5988676220969E+00
(PID.TID 0000.0001) %MON dynstat_theta_sd             =   3.5908576931540E+00
(PID.TID 0000.0001) %MON dynstat_theta_del2           =   2.6051660666549E-08
(PID.TID 0000.0001) %MON dynstat_salt_max             =   3.4476098955952E+01
(PID.TID 0000.0001) %MON dynstat_salt_min             =   3.3629999999993E+01
(PID.TID 0000.0001) %MON dynstat_salt_mean            =   3.4188927761016E+01
(PID.TID 0000.0001) %MON dynstat_salt_sd              =   2.7007047547246E-01
(PID.TID 0000.0001) %MON dynstat_salt_del2            =   9.8873593353124E-10
(PID.TID 0000.0001) %MON trAdv_CFL_u_max              =   1.0972231094877E-03
(PID.TID 0000.0001) %MON trAdv_CFL_v_max              =   2.5056411467091E-03
(PID.TID 0000.0001) %MON trAdv_CFL_w_max              =   5.3242562179801E-04
(PID.TID 0000.0001) %MON advcfl_uvel_max              =   1.1876477851547E-03
(PID.TID 0000.0001) %MON advcfl_vvel_max              =   2.4701269950967E-03
(PID.TID 0000.0001) %MON advcfl_wvel_max              =   4.9948467100095E-04
(PID.TID 0000.0001) %MON advcfl_W_hf_max              =   5.2218851968281E-04
(PID.TID 0000.0001) %MON pe_b_mean                    =   3.4439746959711E-12
(PID.TID 0000.0001) %MON ke_max                       =   4.1169078491404E-03
(PID.TID 0000.0001) %MON ke_mean                      =   6.2357152956141E-06
(PID.TID 0000.0001) %MON ke_vol                       =   8.2635254160858E+14
(PID.TID 0000.0001) %MON vort_r_min                   =  -2.1599568362879E-06
(PID.TID 0000.0001) %MON vort_r_max                   =   6.0471370958783E-06
(PID.TID 0000.0001) %MON vort_a_mean                  =   6.9142466381008E-04
(PID.TID 0000.0001) %MON vort_a_sd                    =   1.4191830028312E-06
(PID.TID 0000.0001) %MON vort_p_mean                  =   6.9569812303954E-04
(PID.TID 0000.0001) %MON vort_p_sd                    =   9.4065662048251E-05
(PID.TID 0000.0001) %MON surfExpan_theta_mean         =   4.7305520576284E-13
(PID.TID 0000.0001) %MON surfExpan_salt_mean          =   2.0229067215459E-21
(PID.TID 0000.0001) // =======================================================
(PID.TID 0000.0001) // End MONITOR dynamic field statistics
(PID.TID 0000.0001) // =======================================================
(PID.TID 0000.0001) // =======================================================
(PID.TID 0000.0001) // Begin OBCS MONITOR field statistics
(PID.TID 0000.0001) // =======================================================
(PID.TID 0000.0001) %MON obc_S_vVel_max               =   8.2674926489827E-02
(PID.TID 0000.0001) %MON obc_S_vVel_min               =  -4.6333911552597E-04
(PID.TID 0000.0001) %MON obc_S_vVel_mean              =  -1.4493732741924E-19
(PID.TID 0000.0001) %MON obc_S_vVel_sd                =   3.7257530163145E-03
(PID.TID 0000.0001) %MON obc_S_vVel_Int               =  -2.4610358195787E-10
(PID.TID 0000.0001) // =======================================================
(PID.TID 0000.0001) // End OBCS MONITOR field statistics
(PID.TID 0000.0001) // =======================================================
 EXTERNAL_FIELDS_LOAD,      1040 : iP,iLd,i0,i1=   52   53   52   53 ; Wght=  0.5000000000  0.5000000000
 cg2d: Sum(rhs),rhsMax =  -6.30961949354969E-12  1.89139438273094E-04
 EXTERNAL_FIELDS_LOAD,      1041 : iP,iLd,i0,i1=   52   53   52   53 ; Wght=  0.4500000000  0.5500000000
 cg2d: Sum(rhs),rhsMax =  -5.49960077478318E-12  2.15137418267199E-04
 EXTERNAL_FIELDS_LOAD,      1042 : iP,iLd,i0,i1=   52   53   52   53 ; Wght=  0.4000000000  0.6000000000
 cg2d: Sum(rhs),rhsMax =  -4.78905803902308E-12  2.39940141470414E-04
 EXTERNAL_FIELDS_LOAD,      1043 : iP,iLd,i0,i1=   52   53   52   53 ; Wght=  0.3500000000  0.6500000000
 cg2d: Sum(rhs),rhsMax =  -4.51905179943424E-12  2.63446785485540E-04
 EXTERNAL_FIELDS_LOAD,      1044 : iP,iLd,i0,i1=   52   53   52   53 ; Wght=  0.3000000000  0.7000000000
 cg2d: Sum(rhs),rhsMax =  -4.22062385041500E-12  2.93105205437597E-04
 EXTERNAL_FIELDS_LOAD,      1045 : iP,iLd,i0,i1=   52   53   52   53 ; Wght=  0.2500000000  0.7500000000
 cg2d: Sum(rhs),rhsMax =  -3.63797880709171E-12  3.25193559349485E-04
 EXTERNAL_FIELDS_LOAD,      1046 : iP,iLd,i0,i1=   52   53   52   53 ; Wght=  0.2000000000  0.8000000000
 cg2d: Sum(rhs),rhsMax =  -4.20641299569979E-12  3.56091152968228E-04
 EXTERNAL_FIELDS_LOAD,      1047 : iP,iLd,i0,i1=   52   53   52   53 ; Wght=  0.1500000000  0.8500000000
 cg2d: Sum(rhs),rhsMax =  -3.09796632791404E-12  3.85702310520062E-04
 EXTERNAL_FIELDS_LOAD,      1048 : iP,iLd,i0,i1=   52   53   52   53 ; Wght=  0.1000000000  0.9000000000
 cg2d: Sum(rhs),rhsMax =  -4.07851530326298E-12  4.13936532593705E-04
 EXTERNAL_FIELDS_LOAD,      1049 : iP,iLd,i0,i1=   52   53   52   53 ; Wght=  0.0500000000  0.9500000000
 cg2d: Sum(rhs),rhsMax =  -4.57589521829505E-12  4.45270097315060E-04
 EXTERNAL_FIELDS_LOAD,      1050 : iP,iLd,i0,i1=   52   53   53   54 ; Wght=  1.0000000000  0.0000000000
 EXTERNAL_FIELDS_LOAD, it=      1050 : Reading new data, i0,i1=   53   54 (prev=   52   53 )
(PID.TID 0000.0001)  MDS_READ_FIELD: opening global file: ../input/merid_halfgauss2p5hr_272x320.bin
(PID.TID 0000.0001)  MDS_READ_FIELD: opening global file: ../input/merid_halfgauss2p5hr_272x320.bin
 cg2d: Sum(rhs),rhsMax =  -3.48165940522449E-12  4.76704869432362E-04
 EXTERNAL_FIELDS_LOAD,      1051 : iP,iLd,i0,i1=   53   54   53   54 ; Wght=  0.9500000000  0.0500000000
 cg2d: Sum(rhs),rhsMax =  -1.83320025826106E-12  5.06664705422932E-04
 EXTERNAL_FIELDS_LOAD,      1052 : iP,iLd,i0,i1=   53   54   53   54 ; Wght=  0.9000000000  0.1000000000
 cg2d: Sum(rhs),rhsMax =  -3.14059889205964E-12  5.35061833860876E-04
 EXTERNAL_FIELDS_LOAD,      1053 : iP,iLd,i0,i1=   53   54   53   54 ; Wght=  0.8500000000  0.1500000000
 cg2d: Sum(rhs),rhsMax =  -3.04112290905323E-12  5.61813557384281E-04
 EXTERNAL_FIELDS_LOAD,      1054 : iP,iLd,i0,i1=   53   54   53   54 ; Wght=  0.8000000000  0.2000000000
 cg2d: Sum(rhs),rhsMax =  -4.07851530326298E-12  5.86842484452031E-04
 EXTERNAL_FIELDS_LOAD,      1055 : iP,iLd,i0,i1=   53   54   53   54 ; Wght=  0.7500000000  0.2500000000
 cg2d: Sum(rhs),rhsMax =  -2.47268872044515E-12  6.10076744403154E-04
 EXTERNAL_FIELDS_LOAD,      1056 : iP,iLd,i0,i1=   53   54   53   54 ; Wght=  0.7000000000  0.3000000000
 cg2d: Sum(rhs),rhsMax =  -1.74793512996985E-12  6.31450186137258E-04
 EXTERNAL_FIELDS_LOAD,      1057 : iP,iLd,i0,i1=   53   54   53   54 ; Wght=  0.6500000000  0.3500000000
 cg2d: Sum(rhs),rhsMax =  -2.79953837889479E-12  6.50902559622159E-04
 EXTERNAL_FIELDS_LOAD,      1058 : iP,iLd,i0,i1=   53   54   53   54 ; Wght=  0.6000000000  0.4000000000
 cg2d: Sum(rhs),rhsMax =  -1.16529008664656E-12  6.68379679076018E-04
 EXTERNAL_FIELDS_LOAD,      1059 : iP,iLd,i0,i1=   53   54   53   54 ; Wght=  0.5500000000  0.4500000000
 cg2d: Sum(rhs),rhsMax =  -3.58113538823090E-12  6.83833569953426E-04
(PID.TID 0000.0001)      cg2d_init_res =   8.70088390152225E-01
(PID.TID 0000.0001)      cg2d_iters(min,last) =      -1      34
(PID.TID 0000.0001)      cg2d_last_res =   9.65548236395841E-08
(PID.TID 0000.0001) // =======================================================
(PID.TID 0000.0001) // Begin MONITOR dynamic field statistics
(PID.TID 0000.0001) // =======================================================
(PID.TID 0000.0001) %MON time_tsnumber                =                  1060
(PID.TID 0000.0001) %MON time_secondsf                =   6.3600000000000E+04
(PID.TID 0000.0001) %MON dynstat_eta_max              =   5.7759132209213E-04
(PID.TID 0000.0001) %MON dynstat_eta_min              =  -5.1006849138679E-04
(PID.TID 0000.0001) %MON dynstat_eta_mean             =   2.3735438866138E-19
(PID.TID 0000.0001) %MON dynstat_eta_sd               =   3.6929742846787E-04
(PID.TID 0000.0001) %MON dynstat_eta_del2             =   3.6219339181318E-08
(PID.TID 0000.0001) %MON dynstat_uvel_max             =   8.2596452109331E-02
(PID.TID 0000.0001) %MON dynstat_uvel_min             =  -5.3108094768927E-03
(PID.TID 0000.0001) %MON dynstat_uvel_mean            =   3.8431329835526E-05
(PID.TID 0000.0001) %MON dynstat_uvel_sd              =   3.1954777658670E-03
(PID.TID 0000.0001) %MON dynstat_uvel_del2            =   9.1914261682186E-08
(PID.TID 0000.0001) %MON dynstat_vvel_max             =   5.3502023373443E-02
(PID.TID 0000.0001) %MON dynstat_vvel_min             =  -6.8710206622679E-03
(PID.TID 0000.0001) %MON dynstat_vvel_mean            =   2.2932043114817E-05
(PID.TID 0000.0001) %MON dynstat_vvel_sd              =   1.4854194648356E-03
(PID.TID 0000.0001) %MON dynstat_vvel_del2            =   9.3253765777363E-08
(PID.TID 0000.0001) %MON dynstat_wvel_max             =   1.0543039795729E-05
(PID.TID 0000.0001) %MON dynstat_wvel_min             =  -1.4827887352046E-05
(PID.TID 0000.0001) %MON dynstat_wvel_mean            =  -1.0858330960800E-07
(PID.TID 0000.0001) %MON dynstat_wvel_sd              =   5.9777273507535E-07
(PID.TID 0000.0001) %MON dynstat_wvel_del2            =   3.9481649603592E-10
(PID.TID 0000.0001) %MON dynstat_theta_max            =   1.6578592729693E+01
(PID.TID 0000.0001) %MON dynstat_theta_min            =   4.1846058861832E+00
(PID.TID 0000.0001) %MON dynstat_theta_mean           =   7.5988706149047E+00
(PID.TID 0000.0001) %MON dynstat_theta_sd             =   3.5908596978766E+00
(PID.TID 0000.0001) %MON dynstat_theta_del2           =   3.3076038223965E-08
(PID.TID 0000.0001) %MON dynstat_salt_max             =   3.4476098920350E+01
(PID.TID 0000.0001) %MON dynstat_salt_min             =   3.3629999999992E+01
(PID.TID 0000.0001) %MON dynstat_salt_mean            =   3.4188927579091E+01
(PID.TID 0000.0001) %MON dynstat_salt_sd              =   2.7007056019890E-01
(PID.TID 0000.0001) %MON dynstat_salt_del2            =   1.3691046793892E-09
(PID.TID 0000.0001) %MON trAdv_CFL_u_max              =   2.4404783864153E-03
(PID.TID 0000.0001) %MON trAdv_CFL_v_max              =   1.6742005704854E-03
(PID.TID 0000.0001) %MON trAdv_CFL_w_max              =   4.1796594397496E-04
(PID.TID 0000.0001) %MON advcfl_uvel_max              =   2.4727006232830E-03
(PID.TID 0000.0001) %MON advcfl_vvel_max              =   1.5975522058359E-03
(PID.TID 0000.0001) %MON advcfl_wvel_max              =   3.8681445266208E-04
(PID.TID 0000.0001) %MON advcfl_W_hf_max              =   4.0439692778308E-04
(PID.TID 0000.0001) %MON pe_b_mean                    =   6.9879816568018E-10
(PID.TID 0000.0001) %MON ke_max                       =   5.5508142319385E-03
(PID.TID 0000.0001) %MON ke_mean                      =   6.2037723753019E-06
(PID.TID 0000.0001) %MON ke_vol                       =   8.2635254160858E+14
(PID.TID 0000.0001) %MON vort_r_min                   =  -3.0891995691002E-05
(PID.TID 0000.0001) %MON vort_r_max                   =   7.6081106315987E-06
(PID.TID 0000.0001) %MON vort_a_mean                  =   6.9142466381008E-04
(PID.TID 0000.0001) %MON vort_a_sd                    =   1.4226733262326E-06
(PID.TID 0000.0001) %MON vort_p_mean                  =   6.9569812303954E-04
(PID.TID 0000.0001) %MON vort_p_sd                    =   9.4062840808396E-05
(PID.TID 0000.0001) %MON surfExpan_theta_mean         =   3.5951236200694E-14
(PID.TID 0000.0001) %MON surfExpan_salt_mean          =  -1.7531858253398E-21
(PID.TID 0000.0001) // =======================================================
(PID.TID 0000.0001) // End MONITOR dynamic field statistics
(PID.TID 0000.0001) // =======================================================
(PID.TID 0000.0001) // =======================================================
(PID.TID 0000.0001) // Begin OBCS MONITOR field statistics
(PID.TID 0000.0001) // =======================================================
(PID.TID 0000.0001) %MON obc_S_vVel_max               =   5.3502023373443E-02
(PID.TID 0000.0001) %MON obc_S_vVel_min               =  -3.2936521698027E-04
(PID.TID 0000.0001) %MON obc_S_vVel_mean              =  -5.3665225646380E-20
(PID.TID 0000.0001) %MON obc_S_vVel_sd                =   2.4116657884846E-03
(PID.TID 0000.0001) %MON obc_S_vVel_Int               =  -9.1123553147554E-11
(PID.TID 0000.0001) // =======================================================
(PID.TID 0000.0001) // End OBCS MONITOR field statistics
(PID.TID 0000.0001) // =======================================================
 EXTERNAL_FIELDS_LOAD,      1060 : iP,iLd,i0,i1=   53   54   53   54 ; Wght=  0.5000000000  0.5000000000
 cg2d: Sum(rhs),rhsMax =  -2.10320649784990E-12  6.97222595696699E-04
 EXTERNAL_FIELDS_LOAD,      1061 : iP,iLd,i0,i1=   53   54   53   54 ; Wght=  0.4500000000  0.5500000000
 cg2d: Sum(rhs),rhsMax =  -3.79429820895893E-12  7.08511566059110E-04
 EXTERNAL_FIELDS_LOAD,      1062 : iP,iLd,i0,i1=   53   54   53   54 ; Wght=  0.4000000000  0.6000000000
 cg2d: Sum(rhs),rhsMax =  -1.44950718095060E-12  7.17671827433417E-04
 EXTERNAL_FIELDS_LOAD,      1063 : iP,iLd,i0,i1=   53   54   53   54 ; Wght=  0.3500000000  0.6500000000
 cg2d: Sum(rhs),rhsMax =  -2.77111666946439E-12  7.24681331860934E-04
 EXTERNAL_FIELDS_LOAD,      1064 : iP,iLd,i0,i1=   53   54   53   54 ; Wght=  0.3000000000  0.7000000000
 cg2d: Sum(rhs),rhsMax =  -1.23634436022257E-12  7.29524689090832E-04
 EXTERNAL_FIELDS_LOAD,      1065 : iP,iLd,i0,i1=   53   54   53   54 ; Wght=  0.2500000000  0.7500000000
 cg2d: Sum(rhs),rhsMax =  -1.81898940354586E-12  7.32193195236942E-04
 EXTERNAL_FIELDS_LOAD,      1066 : iP,iLd,i0,i1=   53   54   53   54 ; Wght=  0.2000000000  0.8000000000
 cg2d: Sum(rhs),rhsMax =  -2.06057393370429E-12  7.32684840090291E-04
 EXTERNAL_FIELDS_LOAD,      1067 : iP,iLd,i0,i1=   53   54   53   54 ; Wght=  0.1500000000  0.8500000000
 cg2d: Sum(rhs),rhsMax =  -3.16902060149005E-12  7.31004304069782E-04
 EXTERNAL_FIELDS_LOAD,      1068 : iP,iLd,i0,i1=   53   54   53   54 ; Wght=  0.1000000000  0.9000000000
 cg2d: Sum(rhs),rhsMax =  -1.44950718095060E-12  7.27162920697360E-04
 EXTERNAL_FIELDS_LOAD,      1069 : iP,iLd,i0,i1=   53   54   53   54 ; Wght=  0.0500000000  0.9500000000
 cg2d: Sum(rhs),rhsMax =  -1.27897692436818E-12  7.21178625632133E-04
 EXTERNAL_FIELDS_LOAD,      1070 : iP,iLd,i0,i1=   53   54   54   55 ; Wght=  1.0000000000  0.0000000000
 EXTERNAL_FIELDS_LOAD, it=      1070 : Reading new data, i0,i1=   54   55 (prev=   53   54 )
(PID.TID 0000.0001)  MDS_READ_FIELD: opening global file: ../input/merid_halfgauss2p5hr_272x320.bin
(PID.TID 0000.0001)  MDS_READ_FIELD: opening global file: ../input/merid_halfgauss2p5hr_272x320.bin
 cg2d: Sum(rhs),rhsMax =  -2.28794760914752E-12  7.13075887248526E-04
 EXTERNAL_FIELDS_LOAD,      1071 : iP,iLd,i0,i1=   54   55   54   55 ; Wght=  0.9500000000  0.0500000000
 cg2d: Sum(rhs),rhsMax =  -2.20268248085631E-12  7.02885614015546E-04
 EXTERNAL_FIELDS_LOAD,      1072 : iP,iLd,i0,i1=   54   55   54   55 ; Wght=  0.9000000000  0.1000000000
 cg2d: Sum(rhs),rhsMax =  -1.52056145452661E-12  6.90645039400690E-04
 EXTERNAL_FIELDS_LOAD,      1073 : iP,iLd,i0,i1=   54   55   54   55 ; Wght=  0.8500000000  0.1500000000
 cg2d: Sum(rhs),rhsMax =  -1.77635683940025E-12  6.76397587727380E-04
 EXTERNAL_FIELDS_LOAD,      1074 : iP,iLd,i0,i1=   54   55   54   55 ; Wght=  0.8000000000  0.2000000000
 cg2d: Sum(rhs),rhsMax =  -3.87956333725015E-12  6.60192726157740E-04
 EXTERNAL_FIELDS_LOAD,      1075 : iP,iLd,i0,i1=   54   55   54   55 ; Wght=  0.7500000000  0.2500000000
 cg2d: Sum(rhs),rhsMax =  -1.71951342053944E-12  6.42085789166962E-04
 EXTERNAL_FIELDS_LOAD,      1076 : iP,iLd,i0,i1=   54   55   54   55 ; Wght=  0.7000000000  0.3000000000
 cg2d: Sum(rhs),rhsMax =  -2.06057393370429E-12  6.22137791317441E-04
 EXTERNAL_FIELDS_LOAD,      1077 : iP,iLd,i0,i1=   54   55   54   55 ; Wght=  0.6500000000  0.3500000000
 cg2d: Sum(rhs),rhsMax =  -2.18847162614111E-12  6.00415213472185E-04
 EXTERNAL_FIELDS_LOAD,      1078 : iP,iLd,i0,i1=   54   55   54   55 ; Wght=  0.6000000000  0.4000000000
 cg2d: Sum(rhs),rhsMax =  -2.31636931857793E-12  5.76989779458966E-04
 EXTERNAL_FIELDS_LOAD,      1079 : iP,iLd,i0,i1=   54   55   54   55 ; Wght=  0.5500000000  0.4500000000
 cg2d: Sum(rhs),rhsMax =  -2.64321897702757E-12  5.51938209779936E-04
(PID.TID 0000.0001)      cg2d_init_res =   1.65159336267724E+00
(PID.TID 0000.0001)      cg2d_iters(min,last) =      -1      36
(PID.TID 0000.0001)      cg2d_last_res =   8.12139991110821E-08
(PID.TID 0000.0001) // =======================================================
(PID.TID 0000.0001) // Begin MONITOR dynamic field statistics
(PID.TID 0000.0001) // =======================================================
(PID.TID 0000.0001) %MON time_tsnumber                =                  1080
(PID.TID 0000.0001) %MON time_secondsf                =   6.4800000000000E+04
(PID.TID 0000.0001) %MON dynstat_eta_max              =   4.5846979746978E-04
(PID.TID 0000.0001) %MON dynstat_eta_min              =  -4.4069155474216E-04
(PID.TID 0000.0001) %MON dynstat_eta_mean             =   1.4133374961201E-19
(PID.TID 0000.0001) %MON dynstat_eta_sd               =   3.0314824772874E-04
(PID.TID 0000.0001) %MON dynstat_eta_del2             =   7.1523367483021E-08
(PID.TID 0000.0001) %MON dynstat_uvel_max             =   8.1757809295124E-02
(PID.TID 0000.0001) %MON dynstat_uvel_min             =  -7.6130690257113E-03
(PID.TID 0000.0001) %MON dynstat_uvel_mean            =   3.2492215166633E-05
(PID.TID 0000.0001) %MON dynstat_uvel_sd              =   3.2214372829162E-03
(PID.TID 0000.0001) %MON dynstat_uvel_del2            =   1.0294884708031E-07
(PID.TID 0000.0001) %MON dynstat_vvel_max             =   4.5220577250957E-03
(PID.TID 0000.0001) %MON dynstat_vvel_min             =  -4.6262873558025E-02
(PID.TID 0000.0001) %MON dynstat_vvel_mean            =  -3.5467605841647E-05
(PID.TID 0000.0001) %MON dynstat_vvel_sd              =   1.4014816861747E-03
(PID.TID 0000.0001) %MON dynstat_vvel_del2            =   8.2957906299271E-08
(PID.TID 0000.0001) %MON dynstat_wvel_max             =   1.3270796527529E-05
(PID.TID 0000.0001) %MON dynstat_wvel_min             =  -5.8505659533722E-06
(PID.TID 0000.0001) %MON dynstat_wvel_mean            =   1.3493657281518E-08
(PID.TID 0000.0001) %MON dynstat_wvel_sd              =   7.3716767765722E-07
(PID.TID 0000.0001) %MON dynstat_wvel_del2            =   4.6457265897350E-10
(PID.TID 0000.0001) %MON dynstat_theta_max            =   1.6578582991585E+01
(PID.TID 0000.0001) %MON dynstat_theta_min            =   4.1846064512270E+00
(PID.TID 0000.0001) %MON dynstat_theta_mean           =   7.5988716014875E+00
(PID.TID 0000.0001) %MON dynstat_theta_sd             =   3.5908594441035E+00
(PID.TID 0000.0001) %MON dynstat_theta_del2           =   2.5560661171031E-08
(PID.TID 0000.0001) %MON dynstat_salt_max             =   3.4476098862758E+01
(PID.TID 0000.0001) %MON dynstat_salt_min             =   3.3629999999992E+01
(PID.TID 0000.0001) %MON dynstat_salt_mean            =   3.4188927517031E+01
(PID.TID 0000.0001) %MON dynstat_salt_sd              =   2.7007054328521E-01
(PID.TID 0000.0001) %MON dynstat_salt_del2            =   1.0955963600844E-09
(PID.TID 0000.0001) %MON trAdv_CFL_u_max              =   2.4730328368541E-03
(PID.TID 0000.0001) %MON trAdv_CFL_v_max              =   1.2972164410869E-03
(PID.TID 0000.0001) %MON trAdv_CFL_w_max              =   3.2751354061758E-04
(PID.TID 0000.0001) %MON advcfl_uvel_max              =   2.4594642129306E-03
(PID.TID 0000.0001) %MON advcfl_vvel_max              =   1.3813936565549E-03
(PID.TID 0000.0001) %MON advcfl_wvel_max              =   3.4619469202248E-04
(PID.TID 0000.0001) %MON advcfl_W_hf_max              =   3.6193081438714E-04
(PID.TID 0000.0001) %MON pe_b_mean                    =   4.7087899054983E-10
(PID.TID 0000.0001) %MON ke_max                       =   5.2649807823616E-03
(PID.TID 0000.0001) %MON ke_mean                      =   6.1718387859577E-06
(PID.TID 0000.0001) %MON ke_vol                       =   8.2635254160858E+14
(PID.TID 0000.0001) %MON vort_r_min                   =  -4.0885578024836E-05
(PID.TID 0000.0001) %MON vort_r_max                   =   8.4954884889877E-06
(PID.TID 0000.0001) %MON vort_a_mean                  =   6.9142466381008E-04
(PID.TID 0000.0001) %MON vort_a_sd                    =   1.4248679280581E-06
(PID.TID 0000.0001) %MON vort_p_mean                  =   6.9569812303954E-04
(PID.TID 0000.0001) %MON vort_p_sd                    =   9.4061486646337E-05
(PID.TID 0000.0001) %MON surfExpan_theta_mean         =  -2.9791835912896E-13
(PID.TID 0000.0001) %MON surfExpan_salt_mean          =   2.3600578418035E-21
(PID.TID 0000.0001) // =======================================================
(PID.TID 0000.0001) // End MONITOR dynamic field statistics
(PID.TID 0000.0001) // =======================================================
(PID.TID 0000.0001) // =======================================================
(PID.TID 0000.0001) // Begin OBCS MONITOR field statistics
(PID.TID 0000.0001) // =======================================================
(PID.TID 0000.0001) %MON obc_S_vVel_max               =   8.6459268688902E-05
(PID.TID 0000.0001) %MON obc_S_vVel_min               =  -1.0281430169811E-02
(PID.TID 0000.0001) %MON obc_S_vVel_mean              =   7.9287446912924E-21
(PID.TID 0000.0001) %MON obc_S_vVel_sd                =   4.6438367480678E-04
(PID.TID 0000.0001) %MON obc_S_vVel_Int               =   1.3463008485814E-11
(PID.TID 0000.0001) // =======================================================
(PID.TID 0000.0001) // End OBCS MONITOR field statistics
(PID.TID 0000.0001) // =======================================================
 EXTERNAL_FIELDS_LOAD,      1080 : iP,iLd,i0,i1=   54   55   54   55 ; Wght=  0.5000000000  0.5000000000
 cg2d: Sum(rhs),rhsMax =  -1.97530880541308E-12  5.25341965371822E-04
 EXTERNAL_FIELDS_LOAD,      1081 : iP,iLd,i0,i1=   54   55   54   55 ; Wght=  0.4500000000  0.5500000000
 cg2d: Sum(rhs),rhsMax =  -4.24904555984540E-12  4.97286970560655E-04
 EXTERNAL_FIELDS_LOAD,      1082 : iP,iLd,i0,i1=   54   55   54   55 ; Wght=  0.4000000000  0.6000000000
 cg2d: Sum(rhs),rhsMax =  -2.30215846386272E-12  4.67863323328003E-04
 EXTERNAL_FIELDS_LOAD,      1083 : iP,iLd,i0,i1=   54   55   54   55 ; Wght=  0.3500000000  0.6500000000
 cg2d: Sum(rhs),rhsMax =  -2.37321273743873E-12  4.37164994230672E-04
 EXTERNAL_FIELDS_LOAD,      1084 : iP,iLd,i0,i1=   54   55   54   55 ; Wght=  0.3000000000  0.7000000000
 cg2d: Sum(rhs),rhsMax =  -3.19744231092045E-12  4.05289509441441E-04
 EXTERNAL_FIELDS_LOAD,      1085 : iP,iLd,i0,i1=   54   55   54   55 ; Wght=  0.2500000000  0.7500000000
 cg2d: Sum(rhs),rhsMax =  -2.24531504500192E-12  3.72337625714032E-04
 EXTERNAL_FIELDS_LOAD,      1086 : iP,iLd,i0,i1=   54   55   54   55 ; Wght=  0.2000000000  0.8000000000
 cg2d: Sum(rhs),rhsMax =  -4.86011231259909E-12  3.38412994286469E-04
 EXTERNAL_FIELDS_LOAD,      1087 : iP,iLd,i0,i1=   54   55   54   55 ; Wght=  0.1500000000  0.8500000000
 cg2d: Sum(rhs),rhsMax =  -3.19744231092045E-12  3.32050646504703E-04
 EXTERNAL_FIELDS_LOAD,      1088 : iP,iLd,i0,i1=   54   55   54   55 ; Wght=  0.1000000000  0.9000000000
 cg2d: Sum(rhs),rhsMax =  -2.81374923361000E-12  3.67236909639888E-04
 EXTERNAL_FIELDS_LOAD,      1089 : iP,iLd,i0,i1=   54   55   54   55 ; Wght=  0.0500000000  0.9500000000
 cg2d: Sum(rhs),rhsMax =  -2.60058641288197E-12  4.02049215270205E-04
 EXTERNAL_FIELDS_LOAD,      1090 : iP,iLd,i0,i1=   54   55   55   56 ; Wght=  1.0000000000  0.0000000000
 EXTERNAL_FIELDS_LOAD, it=      1090 : Reading new data, i0,i1=   55   56 (prev=   54   55 )
(PID.TID 0000.0001)  MDS_READ_FIELD: opening global file: ../input/merid_halfgauss2p5hr_272x320.bin
(PID.TID 0000.0001)  MDS_READ_FIELD: opening global file: ../input/merid_halfgauss2p5hr_272x320.bin
 cg2d: Sum(rhs),rhsMax =  -3.41771055900608E-12  4.36388903804310E-04
 EXTERNAL_FIELDS_LOAD,      1091 : iP,iLd,i0,i1=   55   56   55   56 ; Wght=  0.9500000000  0.0500000000
 cg2d: Sum(rhs),rhsMax =  -2.73558953267639E-12  4.70169895017198E-04
 EXTERNAL_FIELDS_LOAD,      1092 : iP,iLd,i0,i1=   55   56   55   56 ; Wght=  0.9000000000  0.1000000000
 cg2d: Sum(rhs),rhsMax =  -2.63966626334877E-12  5.03302293265644E-04
 EXTERNAL_FIELDS_LOAD,      1093 : iP,iLd,i0,i1=   55   56   55   56 ; Wght=  0.8500000000  0.1500000000
 cg2d: Sum(rhs),rhsMax =  -2.13246087454877E-12  5.35676979327723E-04
 EXTERNAL_FIELDS_LOAD,      1094 : iP,iLd,i0,i1=   55   56   55   56 ; Wght=  0.8000000000  0.2000000000
 cg2d: Sum(rhs),rhsMax =  -2.13162820728030E-12  5.67203001901067E-04
 EXTERNAL_FIELDS_LOAD,      1095 : iP,iLd,i0,i1=   55   56   55   56 ; Wght=  0.7500000000  0.2500000000
 cg2d: Sum(rhs),rhsMax =  -1.89182003396127E-12  5.97791991079413E-04
 EXTERNAL_FIELDS_LOAD,      1096 : iP,iLd,i0,i1=   55   56   55   56 ; Wght=  0.7000000000  0.3000000000
 cg2d: Sum(rhs),rhsMax =  -1.71240799318184E-12  6.27358372087003E-04
 EXTERNAL_FIELDS_LOAD,      1097 : iP,iLd,i0,i1=   55   56   55   56 ; Wght=  0.6500000000  0.3500000000
 cg2d: Sum(rhs),rhsMax =  -1.37490019369579E-12  6.55819569530244E-04
 EXTERNAL_FIELDS_LOAD,      1098 : iP,iLd,i0,i1=   55   56   55   56 ; Wght=  0.6000000000  0.4000000000
 cg2d: Sum(rhs),rhsMax =  -1.33582034322899E-12  6.83096201598467E-04
 EXTERNAL_FIELDS_LOAD,      1099 : iP,iLd,i0,i1=   55   56   55   56 ; Wght=  0.5500000000  0.4500000000
 cg2d: Sum(rhs),rhsMax =  -1.22213350550737E-12  7.09112263665192E-04
(PID.TID 0000.0001)      cg2d_init_res =   1.94112698430959E+00
(PID.TID 0000.0001)      cg2d_iters(min,last) =      -1      36
(PID.TID 0000.0001)      cg2d_last_res =   9.04799835284384E-08
(PID.TID 0000.0001) // =======================================================
(PID.TID 0000.0001) // Begin MONITOR dynamic field statistics
(PID.TID 0000.0001) // =======================================================
(PID.TID 0000.0001) %MON time_tsnumber                =                  1100
(PID.TID 0000.0001) %MON time_secondsf                =   6.6000000000000E+04
(PID.TID 0000.0001) %MON dynstat_eta_max              =   1.2761785659725E-04
(PID.TID 0000.0001) %MON dynstat_eta_min              =  -6.1843929858795E-04
(PID.TID 0000.0001) %MON dynstat_eta_mean             =   1.4672816753613E-19
(PID.TID 0000.0001) %MON dynstat_eta_sd               =   1.0006765414317E-04
(PID.TID 0000.0001) %MON dynstat_eta_del2             =   7.2649488681516E-08
(PID.TID 0000.0001) %MON dynstat_uvel_max             =   4.6258734461130E-02
(PID.TID 0000.0001) %MON dynstat_uvel_min             =  -5.5372907690808E-03
(PID.TID 0000.0001) %MON dynstat_uvel_mean            =  -8.9419114529255E-06
(PID.TID 0000.0001) %MON dynstat_uvel_sd              =   1.1934618374162E-03
(PID.TID 0000.0001) %MON dynstat_uvel_del2            =   9.4385822699541E-08
(PID.TID 0000.0001) %MON dynstat_vvel_max             =   5.5558991348925E-03
(PID.TID 0000.0001) %MON dynstat_vvel_min             =  -8.4304392852070E-02
(PID.TID 0000.0001) %MON dynstat_vvel_mean            =  -5.3703580589421E-05
(PID.TID 0000.0001) %MON dynstat_vvel_sd              =   3.2970452982359E-03
(PID.TID 0000.0001) %MON dynstat_vvel_del2            =   8.2251276782384E-08
(PID.TID 0000.0001) %MON dynstat_wvel_max             =   2.1738304717251E-05
(PID.TID 0000.0001) %MON dynstat_wvel_min             =  -6.6449548942833E-06
(PID.TID 0000.0001) %MON dynstat_wvel_mean            =   1.2737999809064E-07
(PID.TID 0000.0001) %MON dynstat_wvel_sd              =   1.0756430079105E-06
(PID.TID 0000.0001) %MON dynstat_wvel_del2            =   5.3556741182317E-10
(PID.TID 0000.0001) %MON dynstat_theta_max            =   1.6578552611286E+01
(PID.TID 0000.0001) %MON dynstat_theta_min            =   4.1846068176388E+00
(PID.TID 0000.0001) %MON dynstat_theta_mean           =   7.5988699417913E+00
(PID.TID 0000.0001) %MON dynstat_theta_sd             =   3.5908562796171E+00
(PID.TID 0000.0001) %MON dynstat_theta_del2           =   1.5336120065703E-08
(PID.TID 0000.0001) %MON dynstat_salt_max             =   3.4476098825412E+01
(PID.TID 0000.0001) %MON dynstat_salt_min             =   3.3629999999992E+01
(PID.TID 0000.0001) %MON dynstat_salt_mean            =   3.4188927615070E+01
(PID.TID 0000.0001) %MON dynstat_salt_sd              =   2.7007039481164E-01
(PID.TID 0000.0001) %MON dynstat_salt_del2            =   5.6456007013932E-10
(PID.TID 0000.0001) %MON trAdv_CFL_u_max              =   1.5623892920015E-03
(PID.TID 0000.0001) %MON trAdv_CFL_v_max              =   2.4930809343373E-03
(PID.TID 0000.0001) %MON trAdv_CFL_w_max              =   4.0879814585958E-04
(PID.TID 0000.0001) %MON advcfl_uvel_max              =   1.4782586980473E-03
(PID.TID 0000.0001) %MON advcfl_vvel_max              =   2.5173004733374E-03
(PID.TID 0000.0001) %MON advcfl_wvel_max              =   4.2696973419377E-04
(PID.TID 0000.0001) %MON advcfl_W_hf_max              =   4.4637744938440E-04
(PID.TID 0000.0001) %MON pe_b_mean                    =   5.1308182043783E-11
(PID.TID 0000.0001) %MON ke_max                       =   3.9341682961240E-03
(PID.TID 0000.0001) %MON ke_mean                      =   6.1394213750964E-06
(PID.TID 0000.0001) %MON ke_vol                       =   8.2635254160858E+14
(PID.TID 0000.0001) %MON vort_r_min                   =  -2.4574554075487E-05
(PID.TID 0000.0001) %MON vort_r_max                   =   5.4230772808915E-06
(PID.TID 0000.0001) %MON vort_a_mean                  =   6.9142466381008E-04
(PID.TID 0000.0001) %MON vort_a_sd                    =   1.4209641185389E-06
(PID.TID 0000.0001) %MON vort_p_mean                  =   6.9569812303954E-04
(PID.TID 0000.0001) %MON vort_p_sd                    =   9.4062376445978E-05
(PID.TID 0000.0001) %MON surfExpan_theta_mean         =  -1.9655949602612E-13
(PID.TID 0000.0001) %MON surfExpan_salt_mean          =  -8.9007895748019E-21
(PID.TID 0000.0001) // =======================================================
(PID.TID 0000.0001) // End MONITOR dynamic field statistics
(PID.TID 0000.0001) // =======================================================
(PID.TID 0000.0001) // =======================================================
(PID.TID 0000.0001) // Begin OBCS MONITOR field statistics
(PID.TID 0000.0001) // =======================================================
(PID.TID 0000.0001) %MON obc_S_vVel_max               =   3.6554627754968E-04
(PID.TID 0000.0001) %MON obc_S_vVel_min               =  -6.7205253696861E-02
(PID.TID 0000.0001) %MON obc_S_vVel_mean              =  -1.2329673991639E-19
(PID.TID 0000.0001) %MON obc_S_vVel_sd                =   3.0321125922874E-03
(PID.TID 0000.0001) %MON obc_S_vVel_Int               =  -2.0935786437803E-10
(PID.TID 0000.0001) // =======================================================
(PID.TID 0000.0001) // End OBCS MONITOR field statistics
(PID.TID 0000.0001) // =======================================================
 EXTERNAL_FIELDS_LOAD,      1100 : iP,iLd,i0,i1=   55   56   55   56 ; Wght=  0.5000000000  0.5000000000
 cg2d: Sum(rhs),rhsMax =  -7.67386154620908E-13  7.33795300735430E-04
 EXTERNAL_FIELDS_LOAD,      1101 : iP,iLd,i0,i1=   55   56   55   56 ; Wght=  0.4500000000  0.5500000000
 cg2d: Sum(rhs),rhsMax =  -1.40687461680500E-12  7.57076568293314E-04
 EXTERNAL_FIELDS_LOAD,      1102 : iP,iLd,i0,i1=   55   56   55   56 ; Wght=  0.4000000000  0.6000000000
 cg2d: Sum(rhs),rhsMax =  -9.09494701772928E-13  7.78891181028711E-04
 EXTERNAL_FIELDS_LOAD,      1103 : iP,iLd,i0,i1=   55   56   55   56 ; Wght=  0.3500000000  0.6500000000
 cg2d: Sum(rhs),rhsMax =  -6.89226453687297E-13  7.99178249047079E-04
 EXTERNAL_FIELDS_LOAD,      1104 : iP,iLd,i0,i1=   55   56   55   56 ; Wght=  0.3000000000  0.7000000000
 cg2d: Sum(rhs),rhsMax =  -8.38440428196918E-13  8.17881001185635E-04
 EXTERNAL_FIELDS_LOAD,      1105 : iP,iLd,i0,i1=   55   56   55   56 ; Wght=  0.2500000000  0.7500000000
 cg2d: Sum(rhs),rhsMax =  -1.59161572810262E-12  8.34946895119238E-04
 EXTERNAL_FIELDS_LOAD,      1106 : iP,iLd,i0,i1=   55   56   55   56 ; Wght=  0.2000000000  0.8000000000
 cg2d: Sum(rhs),rhsMax =  -1.17950094136177E-12  8.50327714001081E-04
 EXTERNAL_FIELDS_LOAD,      1107 : iP,iLd,i0,i1=   55   56   55   56 ; Wght=  0.1500000000  0.8500000000
 cg2d: Sum(rhs),rhsMax =  -5.54223333892878E-13  8.63979649460626E-04
 EXTERNAL_FIELDS_LOAD,      1108 : iP,iLd,i0,i1=   55   56   55   56 ; Wght=  0.1000000000  0.9000000000
 cg2d: Sum(rhs),rhsMax =  -1.05160324892495E-12  8.75863370804577E-04
 EXTERNAL_FIELDS_LOAD,      1109 : iP,iLd,i0,i1=   55   56   55   56 ; Wght=  0.0500000000  0.9500000000
 cg2d: Sum(rhs),rhsMax =  -6.25277607468888E-13  8.85944080442396E-04
 EXTERNAL_FIELDS_LOAD,      1110 : iP,iLd,i0,i1=   55   56   56   57 ; Wght=  1.0000000000  0.0000000000
 EXTERNAL_FIELDS_LOAD, it=      1110 : Reading new data, i0,i1=   56   57 (prev=   55   56 )
(PID.TID 0000.0001)  MDS_READ_FIELD: opening global file: ../input/merid_halfgauss2p5hr_272x320.bin
(PID.TID 0000.0001)  MDS_READ_FIELD: opening global file: ../input/merid_halfgauss2p5hr_272x320.bin
 cg2d: Sum(rhs),rhsMax =  -1.71951342053944E-12  8.94191555540657E-04
 EXTERNAL_FIELDS_LOAD,      1111 : iP,iLd,i0,i1=   56   57   56   57 ; Wght=  0.9500000000  0.0500000000
 cg2d: Sum(rhs),rhsMax =  -1.03739239420975E-12  9.00580176051179E-04
 EXTERNAL_FIELDS_LOAD,      1112 : iP,iLd,i0,i1=   56   57   56   57 ; Wght=  0.9000000000  0.1000000000
 cg2d: Sum(rhs),rhsMax =  -2.70006239588838E-12  9.05088939331413E-04
 EXTERNAL_FIELDS_LOAD,      1113 : iP,iLd,i0,i1=   56   57   56   57 ; Wght=  0.8500000000  0.1500000000
 cg2d: Sum(rhs),rhsMax =  -2.28794760914752E-12  9.07701461668795E-04
 EXTERNAL_FIELDS_LOAD,      1114 : iP,iLd,i0,i1=   56   57   56   57 ; Wght=  0.8000000000  0.2000000000
 cg2d: Sum(rhs),rhsMax =  -5.96855898038484E-13  9.08405967145352E-04
 EXTERNAL_FIELDS_LOAD,      1115 : iP,iLd,i0,i1=   56   57   56   57 ; Wght=  0.7500000000  0.2500000000
 cg2d: Sum(rhs),rhsMax =  -2.98427949019242E-13  9.07195264180387E-04
 EXTERNAL_FIELDS_LOAD,      1116 : iP,iLd,i0,i1=   56   57   56   57 ; Wght=  0.7000000000  0.3000000000
 cg2d: Sum(rhs),rhsMax =  -6.53699316899292E-13  9.04066710583616E-04
 EXTERNAL_FIELDS_LOAD,      1117 : iP,iLd,i0,i1=   56   57   56   57 ; Wght=  0.6500000000  0.3500000000
 cg2d: Sum(rhs),rhsMax =   1.42108547152020E-14  8.99022167608994E-04
 EXTERNAL_FIELDS_LOAD,      1118 : iP,iLd,i0,i1=   56   57   56   57 ; Wght=  0.6000000000  0.4000000000
 cg2d: Sum(rhs),rhsMax =  -3.83693077310454E-13  8.92067943761006E-04
 EXTERNAL_FIELDS_LOAD,      1119 : iP,iLd,i0,i1=   56   57   56   57 ; Wght=  0.5500000000  0.4500000000
 cg2d: Sum(rhs),rhsMax =  -1.97530880541308E-12  8.83214729389865E-04
(PID.TID 0000.0001)      cg2d_init_res =   3.81900662493948E-01
(PID.TID 0000.0001)      cg2d_iters(min,last) =      -1      33
(PID.TID 0000.0001)      cg2d_last_res =   6.40167606351049E-08
(PID.TID 0000.0001) // =======================================================
(PID.TID 0000.0001) // Begin MONITOR dynamic field statistics
(PID.TID 0000.0001) // =======================================================
(PID.TID 0000.0001) %MON time_tsnumber                =                  1120
(PID.TID 0000.0001) %MON time_secondsf                =   6.7200000000000E+04
(PID.TID 0000.0001) %MON dynstat_eta_max              =   5.5518438385009E-04
(PID.TID 0000.0001) %MON dynstat_eta_min              =  -7.8026457793789E-04
(PID.TID 0000.0001) %MON dynstat_eta_mean             =   0.0000000000000E+00
(PID.TID 0000.0001) %MON dynstat_eta_sd               =   3.7830706875868E-04
(PID.TID 0000.0001) %MON dynstat_eta_del2             =   3.9774453500273E-08
(PID.TID 0000.0001) %MON dynstat_uvel_max             =   4.2046804594344E-03
(PID.TID 0000.0001) %MON dynstat_uvel_min             =  -5.1805128826059E-02
(PID.TID 0000.0001) %MON dynstat_uvel_mean            =  -3.9659808410469E-05
(PID.TID 0000.0001) %MON dynstat_uvel_sd              =   1.6702635769835E-03
(PID.TID 0000.0001) %MON dynstat_uvel_del2            =   7.9002725178562E-08
(PID.TID 0000.0001) %MON dynstat_vvel_max             =   7.7980629795662E-03
(PID.TID 0000.0001) %MON dynstat_vvel_min             =  -8.0427967270404E-02
(PID.TID 0000.0001) %MON dynstat_vvel_mean            =  -1.2704694248381E-05
(PID.TID 0000.0001) %MON dynstat_vvel_sd              =   3.0736647483728E-03
(PID.TID 0000.0001) %MON dynstat_vvel_del2            =   8.6815922748488E-08
(PID.TID 0000.0001) %MON dynstat_wvel_max             =   1.9920997601891E-05
(PID.TID 0000.0001) %MON dynstat_wvel_min             =  -8.1435293070753E-06
(PID.TID 0000.0001) %MON dynstat_wvel_mean            =   1.5880604760634E-07
(PID.TID 0000.0001) %MON dynstat_wvel_sd              =   9.4678358889750E-07
(PID.TID 0000.0001) %MON dynstat_wvel_del2            =   4.4996630933524E-10
(PID.TID 0000.0001) %MON dynstat_theta_max            =   1.6578510380181E+01
(PID.TID 0000.0001) %MON dynstat_theta_min            =   4.1846062788627E+00
(PID.TID 0000.0001) %MON dynstat_theta_mean           =   7.5988666996841E+00
(PID.TID 0000.0001) %MON dynstat_theta_sd             =   3.5908514293394E+00
(PID.TID 0000.0001) %MON dynstat_theta_del2           =   2.6744104345306E-08
(PID.TID 0000.0001) %MON dynstat_salt_max             =   3.4476098880327E+01
(PID.TID 0000.0001) %MON dynstat_salt_min             =   3.3629999999992E+01
(PID.TID 0000.0001) %MON dynstat_salt_mean            =   3.4188927810470E+01
(PID.TID 0000.0001) %MON dynstat_salt_sd              =   2.7007016952679E-01
(PID.TID 0000.0001) %MON dynstat_salt_del2            =   1.0508583036127E-09
(PID.TID 0000.0001) %MON trAdv_CFL_u_max              =   1.4762290989969E-03
(PID.TID 0000.0001) %MON trAdv_CFL_v_max              =   2.4204248538770E-03
(PID.TID 0000.0001) %MON trAdv_CFL_w_max              =   4.6009776085263E-04
(PID.TID 0000.0001) %MON advcfl_uvel_max              =   1.5508969714250E-03
(PID.TID 0000.0001) %MON advcfl_vvel_max              =   2.4015517250046E-03
(PID.TID 0000.0001) %MON advcfl_wvel_max              =   4.7922907764687E-04
(PID.TID 0000.0001) %MON advcfl_W_hf_max              =   5.0101221753991E-04
(PID.TID 0000.0001) %MON pe_b_mean                    =   7.3331083470576E-10
(PID.TID 0000.0001) %MON ke_max                       =   4.2700102447462E-03
(PID.TID 0000.0001) %MON ke_mean                      =   6.1058675464856E-06
(PID.TID 0000.0001) %MON ke_vol                       =   8.2635254160858E+14
(PID.TID 0000.0001) %MON vort_r_min                   =  -6.0151382821862E-06
(PID.TID 0000.0001) %MON vort_r_max                   =   7.6635677470656E-06
(PID.TID 0000.0001) %MON vort_a_mean                  =   6.9142466381008E-04
(PID.TID 0000.0001) %MON vort_a_sd                    =   1.4190880112072E-06
(PID.TID 0000.0001) %MON vort_p_mean                  =   6.9569812303954E-04
(PID.TID 0000.0001) %MON vort_p_sd                    =   9.4065295385616E-05
(PID.TID 0000.0001) %MON surfExpan_theta_mean         =   4.5002450830353E-14
(PID.TID 0000.0001) %MON surfExpan_salt_mean          =   1.5921961654167E-20
(PID.TID 0000.0001) // =======================================================
(PID.TID 0000.0001) // End MONITOR dynamic field statistics
(PID.TID 0000.0001) // =======================================================
(PID.TID 0000.0001) // =======================================================
(PID.TID 0000.0001) // Begin OBCS MONITOR field statistics
(PID.TID 0000.0001) // =======================================================
(PID.TID 0000.0001) %MON obc_S_vVel_max               =   4.6553997816419E-04
(PID.TID 0000.0001) %MON obc_S_vVel_min               =  -8.0427967270404E-02
(PID.TID 0000.0001) %MON obc_S_vVel_mean              =   1.6259418886529E-19
(PID.TID 0000.0001) %MON obc_S_vVel_sd                =   3.6294191489695E-03
(PID.TID 0000.0001) %MON obc_S_vVel_Int               =   2.7608493269327E-10
(PID.TID 0000.0001) // =======================================================
(PID.TID 0000.0001) // End OBCS MONITOR field statistics
(PID.TID 0000.0001) // =======================================================
 EXTERNAL_FIELDS_LOAD,      1120 : iP,iLd,i0,i1=   56   57   56   57 ; Wght=  0.5000000000  0.5000000000
 cg2d: Sum(rhs),rhsMax =  -1.00897068477934E-12  8.72477522551848E-04
 EXTERNAL_FIELDS_LOAD,      1121 : iP,iLd,i0,i1=   56   57   56   57 ; Wght=  0.4500000000  0.5500000000
 cg2d: Sum(rhs),rhsMax =  -4.83169060316868E-13  8.59875547446588E-04
 EXTERNAL_FIELDS_LOAD,      1122 : iP,iLd,i0,i1=   56   57   56   57 ; Wght=  0.4000000000  0.6000000000
 cg2d: Sum(rhs),rhsMax =  -9.37916411203332E-13  8.45432166143288E-04
 EXTERNAL_FIELDS_LOAD,      1123 : iP,iLd,i0,i1=   56   57   56   57 ; Wght=  0.3500000000  0.6500000000
 cg2d: Sum(rhs),rhsMax =  -1.54898316395702E-12  8.29174784845448E-04
 EXTERNAL_FIELDS_LOAD,      1124 : iP,iLd,i0,i1=   56   57   56   57 ; Wght=  0.3000000000  0.7000000000
 cg2d: Sum(rhs),rhsMax =  -1.91846538655227E-12  8.11134755478098E-04
 EXTERNAL_FIELDS_LOAD,      1125 : iP,iLd,i0,i1=   56   57   56   57 ; Wght=  0.2500000000  0.7500000000
 cg2d: Sum(rhs),rhsMax =  -9.94759830064140E-13  7.91347273656373E-04
 EXTERNAL_FIELDS_LOAD,      1126 : iP,iLd,i0,i1=   56   57   56   57 ; Wght=  0.2000000000  0.8000000000
 cg2d: Sum(rhs),rhsMax =  -2.21689333557151E-12  7.69851274078681E-04
 EXTERNAL_FIELDS_LOAD,      1127 : iP,iLd,i0,i1=   56   57   56   57 ; Wght=  0.1500000000  0.8500000000
 cg2d: Sum(rhs),rhsMax =  -2.08899564313469E-12  7.46689323984413E-04
 EXTERNAL_FIELDS_LOAD,      1128 : iP,iLd,i0,i1=   56   57   56   57 ; Wght=  0.1000000000  0.9000000000
 cg2d: Sum(rhs),rhsMax =  -1.96109795069788E-12  7.21907516253520E-04
 EXTERNAL_FIELDS_LOAD,      1129 : iP,iLd,i0,i1=   56   57   56   57 ; Wght=  0.0500000000  0.9500000000
 cg2d: Sum(rhs),rhsMax =   2.41584530158434E-13  6.95555361914977E-04
 EXTERNAL_FIELDS_LOAD,      1130 : iP,iLd,i0,i1=   56   57   57   58 ; Wght=  1.0000000000  0.0000000000
 EXTERNAL_FIELDS_LOAD, it=      1130 : Reading new data, i0,i1=   57   58 (prev=   56   57 )
(PID.TID 0000.0001)  MDS_READ_FIELD: opening global file: ../input/merid_halfgauss2p5hr_272x320.bin
(PID.TID 0000.0001)  MDS_READ_FIELD: opening global file: ../input/merid_halfgauss2p5hr_272x320.bin
 cg2d: Sum(rhs),rhsMax =  -3.01270119962282E-12  6.67685683679057E-04
 EXTERNAL_FIELDS_LOAD,      1131 : iP,iLd,i0,i1=   57   58   57   58 ; Wght=  0.9500000000  0.0500000000
 cg2d: Sum(rhs),rhsMax =  -1.40687461680500E-12  6.38354510804668E-04
 EXTERNAL_FIELDS_LOAD,      1132 : iP,iLd,i0,i1=   57   58   57   58 ; Wght=  0.9000000000  0.1000000000
 cg2d: Sum(rhs),rhsMax =  -1.73372427525464E-12  6.07620975607402E-04
 EXTERNAL_FIELDS_LOAD,      1133 : iP,iLd,i0,i1=   57   58   57   58 ; Wght=  0.8500000000  0.1500000000
 cg2d: Sum(rhs),rhsMax =  -1.93267624126747E-12  5.75549614820956E-04
 EXTERNAL_FIELDS_LOAD,      1134 : iP,iLd,i0,i1=   57   58   57   58 ; Wght=  0.8000000000  0.2000000000
 cg2d: Sum(rhs),rhsMax =  -1.90425453183707E-12  5.50236546400455E-04
 EXTERNAL_FIELDS_LOAD,      1135 : iP,iLd,i0,i1=   57   58   57   58 ; Wght=  0.7500000000  0.2500000000
 cg2d: Sum(rhs),rhsMax =  -4.41957581642782E-12  5.31132656478635E-04
 EXTERNAL_FIELDS_LOAD,      1136 : iP,iLd,i0,i1=   57   58   57   58 ; Wght=  0.7000000000  0.3000000000
 cg2d: Sum(rhs),rhsMax =  -3.02691205433803E-12  5.10576999653669E-04
 EXTERNAL_FIELDS_LOAD,      1137 : iP,iLd,i0,i1=   57   58   57   58 ; Wght=  0.6500000000  0.3500000000
 cg2d: Sum(rhs),rhsMax =  -2.01794136955868E-12  4.88633752768581E-04
 EXTERNAL_FIELDS_LOAD,      1138 : iP,iLd,i0,i1=   57   58   57   58 ; Wght=  0.6000000000  0.4000000000
 cg2d: Sum(rhs),rhsMax =  -1.47792889038101E-12  4.65370518094352E-04
 EXTERNAL_FIELDS_LOAD,      1139 : iP,iLd,i0,i1=   57   58   57   58 ; Wght=  0.5500000000  0.4500000000
 cg2d: Sum(rhs),rhsMax =  -3.12638803734444E-12  4.40858129024598E-04
(PID.TID 0000.0001)      cg2d_init_res =   2.39010602229825E+00
(PID.TID 0000.0001)      cg2d_iters(min,last) =      -1      37
(PID.TID 0000.0001)      cg2d_last_res =   6.96192127199904E-08
(PID.TID 0000.0001) // =======================================================
(PID.TID 0000.0001) // Begin MONITOR dynamic field statistics
(PID.TID 0000.0001) // =======================================================
(PID.TID 0000.0001) %MON time_tsnumber                =                  1140
(PID.TID 0000.0001) %MON time_secondsf                =   6.8400000000000E+04
(PID.TID 0000.0001) %MON dynstat_eta_max              =   3.6110408543855E-04
(PID.TID 0000.0001) %MON dynstat_eta_min              =  -3.5760779007353E-04
(PID.TID 0000.0001) %MON dynstat_eta_mean             =   2.3411773790691E-19
(PID.TID 0000.0001) %MON dynstat_eta_sd               =   2.4179431711811E-04
(PID.TID 0000.0001) %MON dynstat_eta_del2             =   6.4947373105238E-09
(PID.TID 0000.0001) %MON dynstat_uvel_max             =   6.0614248619655E-03
(PID.TID 0000.0001) %MON dynstat_uvel_min             =  -8.5014192765961E-02
(PID.TID 0000.0001) %MON dynstat_uvel_mean            =  -2.6324568127195E-05
(PID.TID 0000.0001) %MON dynstat_uvel_sd              =   3.3649967891111E-03
(PID.TID 0000.0001) %MON dynstat_uvel_del2            =   8.4256496483025E-08
(PID.TID 0000.0001) %MON dynstat_vvel_max             =   5.7139199710009E-03
(PID.TID 0000.0001) %MON dynstat_vvel_min             =  -4.1774339161726E-02
(PID.TID 0000.0001) %MON dynstat_vvel_mean            =   4.1119453463455E-05
(PID.TID 0000.0001) %MON dynstat_vvel_sd              =   9.1083916206680E-04
(PID.TID 0000.0001) %MON dynstat_vvel_del2            =   8.3015671547370E-08
(PID.TID 0000.0001) %MON dynstat_wvel_max             =   1.2871321697985E-05
(PID.TID 0000.0001) %MON dynstat_wvel_min             =  -1.0238336495443E-05
(PID.TID 0000.0001) %MON dynstat_wvel_mean            =   8.7249973760192E-08
(PID.TID 0000.0001) %MON dynstat_wvel_sd              =   5.7029990876466E-07
(PID.TID 0000.0001) %MON dynstat_wvel_del2            =   3.7138688231294E-10
(PID.TID 0000.0001) %MON dynstat_theta_max            =   1.6578466447467E+01
(PID.TID 0000.0001) %MON dynstat_theta_min            =   4.1846046607429E+00
(PID.TID 0000.0001) %MON dynstat_theta_mean           =   7.5988639780805E+00
(PID.TID 0000.0001) %MON dynstat_theta_sd             =   3.5908472198256E+00
(PID.TID 0000.0001) %MON dynstat_theta_del2           =   3.3118304285857E-08
(PID.TID 0000.0001) %MON dynstat_salt_max             =   3.4476099045258E+01
(PID.TID 0000.0001) %MON dynstat_salt_min             =   3.3629999999992E+01
(PID.TID 0000.0001) %MON dynstat_salt_mean            =   3.4188927976382E+01
(PID.TID 0000.0001) %MON dynstat_salt_sd              =   2.7006997259654E-01
(PID.TID 0000.0001) %MON dynstat_salt_del2            =   1.3904633378477E-09
(PID.TID 0000.0001) %MON trAdv_CFL_u_max              =   2.5315752003179E-03
(PID.TID 0000.0001) %MON trAdv_CFL_v_max              =   1.3340201553186E-03
(PID.TID 0000.0001) %MON trAdv_CFL_w_max              =   3.0681252291510E-04
(PID.TID 0000.0001) %MON advcfl_uvel_max              =   2.5450809633237E-03
(PID.TID 0000.0001) %MON advcfl_vvel_max              =   1.2473675473791E-03
(PID.TID 0000.0001) %MON advcfl_wvel_max              =   3.0527936036067E-04
(PID.TID 0000.0001) %MON advcfl_W_hf_max              =   3.1915569492252E-04
(PID.TID 0000.0001) %MON pe_b_mean                    =   2.9956520513002E-10
(PID.TID 0000.0001) %MON ke_max                       =   5.5682003837592E-03
(PID.TID 0000.0001) %MON ke_mean                      =   6.0739379376958E-06
(PID.TID 0000.0001) %MON ke_vol                       =   8.2635254160858E+14
(PID.TID 0000.0001) %MON vort_r_min                   =  -7.4964372422881E-06
(PID.TID 0000.0001) %MON vort_r_max                   =   3.4753380977705E-05
(PID.TID 0000.0001) %MON vort_a_mean                  =   6.9142466381008E-04
(PID.TID 0000.0001) %MON vort_a_sd                    =   1.4230269806038E-06
(PID.TID 0000.0001) %MON vort_p_mean                  =   6.9569812303954E-04
(PID.TID 0000.0001) %MON vort_p_sd                    =   9.4068541798951E-05
(PID.TID 0000.0001) %MON surfExpan_theta_mean         =  -2.2605803164592E-14
(PID.TID 0000.0001) %MON surfExpan_salt_mean          =   1.2474591449533E-21
(PID.TID 0000.0001) // =======================================================
(PID.TID 0000.0001) // End MONITOR dynamic field statistics
(PID.TID 0000.0001) // =======================================================
(PID.TID 0000.0001) // =======================================================
(PID.TID 0000.0001) // Begin OBCS MONITOR field statistics
(PID.TID 0000.0001) // =======================================================
(PID.TID 0000.0001) %MON obc_S_vVel_max               =   2.7278155620023E-04
(PID.TID 0000.0001) %MON obc_S_vVel_min               =  -4.1774339161726E-02
(PID.TID 0000.0001) %MON obc_S_vVel_mean              =  -7.3460410637624E-21
(PID.TID 0000.0001) %MON obc_S_vVel_sd                =   1.8854827783666E-03
(PID.TID 0000.0001) %MON obc_S_vVel_Int               =  -1.2473577726269E-11
(PID.TID 0000.0001) // =======================================================
(PID.TID 0000.0001) // End OBCS MONITOR field statistics
(PID.TID 0000.0001) // =======================================================
 EXTERNAL_FIELDS_LOAD,      1140 : iP,iLd,i0,i1=   57   58   57   58 ; Wght=  0.5000000000  0.5000000000
 cg2d: Sum(rhs),rhsMax =  -2.07478478841949E-12  4.15170451108537E-04
 EXTERNAL_FIELDS_LOAD,      1141 : iP,iLd,i0,i1=   57   58   57   58 ; Wght=  0.4500000000  0.5500000000
 cg2d: Sum(rhs),rhsMax =  -2.28794760914752E-12  3.88384181269206E-04
 EXTERNAL_FIELDS_LOAD,      1142 : iP,iLd,i0,i1=   57   58   57   58 ; Wght=  0.4000000000  0.6000000000
 cg2d: Sum(rhs),rhsMax =  -2.45847786572995E-12  3.60578638942901E-04
 EXTERNAL_FIELDS_LOAD,      1143 : iP,iLd,i0,i1=   57   58   57   58 ; Wght=  0.3500000000  0.6500000000
 cg2d: Sum(rhs),rhsMax =  -4.22062385041500E-12  3.31835557863546E-04
 EXTERNAL_FIELDS_LOAD,      1144 : iP,iLd,i0,i1=   57   58   57   58 ; Wght=  0.3000000000  0.7000000000
 cg2d: Sum(rhs),rhsMax =  -4.02167188440217E-12  3.02238873731013E-04
 EXTERNAL_FIELDS_LOAD,      1145 : iP,iLd,i0,i1=   57   58   57   58 ; Wght=  0.2500000000  0.7500000000
 cg2d: Sum(rhs),rhsMax =  -3.22586402035085E-12  2.71874507942116E-04
 EXTERNAL_FIELDS_LOAD,      1146 : iP,iLd,i0,i1=   57   58   57   58 ; Wght=  0.2000000000  0.8000000000
 cg2d: Sum(rhs),rhsMax =  -5.05906427861191E-12  2.40830151190802E-04
 EXTERNAL_FIELDS_LOAD,      1147 : iP,iLd,i0,i1=   57   58   57   58 ; Wght=  0.1500000000  0.8500000000
 cg2d: Sum(rhs),rhsMax =  -6.46593889541691E-12  2.09195042866719E-04
 EXTERNAL_FIELDS_LOAD,      1148 : iP,iLd,i0,i1=   57   58   57   58 ; Wght=  0.1000000000  0.9000000000
 cg2d: Sum(rhs),rhsMax =  -7.06279479345540E-12  1.77059749081119E-04
 EXTERNAL_FIELDS_LOAD,      1149 : iP,iLd,i0,i1=   57   58   57   58 ; Wght=  0.0500000000  0.9500000000
 cg2d: Sum(rhs),rhsMax =  -1.00470742836478E-11  1.44515939454589E-04
 EXTERNAL_FIELDS_LOAD,      1150 : iP,iLd,i0,i1=   57   58   58   59 ; Wght=  1.0000000000  0.0000000000
 EXTERNAL_FIELDS_LOAD, it=      1150 : Reading new data, i0,i1=   58   59 (prev=   57   58 )
(PID.TID 0000.0001)  MDS_READ_FIELD: opening global file: ../input/merid_halfgauss2p5hr_272x320.bin
(PID.TID 0000.0001)  MDS_READ_FIELD: opening global file: ../input/merid_halfgauss2p5hr_272x320.bin
 cg2d: Sum(rhs),rhsMax =  -1.15392140287440E-11  1.11656161219302E-04
 EXTERNAL_FIELDS_LOAD,      1151 : iP,iLd,i0,i1=   58   59   58   59 ; Wght=  0.9500000000  0.0500000000
 cg2d: Sum(rhs),rhsMax =  -8.90487683591346E-12  1.44658955349886E-04
 EXTERNAL_FIELDS_LOAD,      1152 : iP,iLd,i0,i1=   58   59   58   59 ; Wght=  0.9000000000  0.1000000000
 cg2d: Sum(rhs),rhsMax =  -6.93134438733978E-12  1.87080074967075E-04
 EXTERNAL_FIELDS_LOAD,      1153 : iP,iLd,i0,i1=   58   59   58   59 ; Wght=  0.8500000000  0.1500000000
 cg2d: Sum(rhs),rhsMax =  -5.45696821063757E-12  2.29110205907822E-04
 EXTERNAL_FIELDS_LOAD,      1154 : iP,iLd,i0,i1=   58   59   58   59 ; Wght=  0.8000000000  0.2000000000
 cg2d: Sum(rhs),rhsMax =  -4.39115410699742E-12  2.70646001912811E-04
 EXTERNAL_FIELDS_LOAD,      1155 : iP,iLd,i0,i1=   58   59   58   59 ; Wght=  0.7500000000  0.2500000000
 cg2d: Sum(rhs),rhsMax =  -3.87245790989255E-12  3.11583507223108E-04
 EXTERNAL_FIELDS_LOAD,      1156 : iP,iLd,i0,i1=   58   59   58   59 ; Wght=  0.7000000000  0.3000000000
 cg2d: Sum(rhs),rhsMax =  -3.55981910615810E-12  3.51818351168377E-04
 EXTERNAL_FIELDS_LOAD,      1157 : iP,iLd,i0,i1=   58   59   58   59 ; Wght=  0.6500000000  0.3500000000
 cg2d: Sum(rhs),rhsMax =  -4.22062385041500E-12  3.91245956708070E-04
 EXTERNAL_FIELDS_LOAD,      1158 : iP,iLd,i0,i1=   58   59   58   59 ; Wght=  0.6000000000  0.4000000000
 cg2d: Sum(rhs),rhsMax =  -3.06954461848363E-12  4.29761763136324E-04
 EXTERNAL_FIELDS_LOAD,      1159 : iP,iLd,i0,i1=   58   59   58   59 ; Wght=  0.5500000000  0.4500000000
 cg2d: Sum(rhs),rhsMax =  -1.79056769411545E-12  4.67261463086224E-04
(PID.TID 0000.0001)      cg2d_init_res =   2.66817170273249E+00
(PID.TID 0000.0001)      cg2d_iters(min,last) =      -1      37
(PID.TID 0000.0001)      cg2d_last_res =   7.81361205156041E-08
(PID.TID 0000.0001) // =======================================================
(PID.TID 0000.0001) // Begin MONITOR dynamic field statistics
(PID.TID 0000.0001) // =======================================================
(PID.TID 0000.0001) %MON time_tsnumber                =                  1160
(PID.TID 0000.0001) %MON time_secondsf                =   6.9600000000000E+04
(PID.TID 0000.0001) %MON dynstat_eta_max              =   4.1124640636353E-04
(PID.TID 0000.0001) %MON dynstat_eta_min              =  -2.3298183519439E-04
(PID.TID 0000.0001) %MON dynstat_eta_mean             =   1.1813775253828E-19
(PID.TID 0000.0001) %MON dynstat_eta_sd               =   1.5540900279538E-04
(PID.TID 0000.0001) %MON dynstat_eta_del2             =   2.7731592831277E-08
(PID.TID 0000.0001) %MON dynstat_uvel_max             =   8.0098547695041E-03
(PID.TID 0000.0001) %MON dynstat_uvel_min             =  -7.7754473808153E-02
(PID.TID 0000.0001) %MON dynstat_uvel_mean            =   1.5343049620322E-05
(PID.TID 0000.0001) %MON dynstat_uvel_sd              =   2.8949279681674E-03
(PID.TID 0000.0001) %MON dynstat_uvel_del2            =   9.1880740343849E-08
(PID.TID 0000.0001) %MON dynstat_vvel_max             =   5.8211828849799E-02
(PID.TID 0000.0001) %MON dynstat_vvel_min             =  -3.8153468446941E-03
(PID.TID 0000.0001) %MON dynstat_vvel_mean            =   4.8680210867847E-05
(PID.TID 0000.0001) %MON dynstat_vvel_sd              =   1.9247269465614E-03
(PID.TID 0000.0001) %MON dynstat_vvel_del2            =   7.7448201670949E-08
(PID.TID 0000.0001) %MON dynstat_wvel_max             =   5.8771130541348E-06
(PID.TID 0000.0001) %MON dynstat_wvel_min             =  -1.3984544615091E-05
(PID.TID 0000.0001) %MON dynstat_wvel_mean            =  -3.9925663575714E-08
(PID.TID 0000.0001) %MON dynstat_wvel_sd              =   8.4010069559436E-07
(PID.TID 0000.0001) %MON dynstat_wvel_del2            =   4.8269285888647E-10
(PID.TID 0000.0001) %MON dynstat_theta_max            =   1.6578433435473E+01
(PID.TID 0000.0001) %MON dynstat_theta_min            =   4.1846042063145E+00
(PID.TID 0000.0001) %MON dynstat_theta_mean           =   7.5988635356345E+00
(PID.TID 0000.0001) %MON dynstat_theta_sd             =   3.5908455624929E+00
(PID.TID 0000.0001) %MON dynstat_theta_del2           =   2.4867972749570E-08
(PID.TID 0000.0001) %MON dynstat_salt_max             =   3.4476099091575E+01
(PID.TID 0000.0001) %MON dynstat_salt_min             =   3.3629999999992E+01
(PID.TID 0000.0001) %MON dynstat_salt_mean            =   3.4188928005739E+01
(PID.TID 0000.0001) %MON dynstat_salt_sd              =   2.7006989057759E-01
(PID.TID 0000.0001) %MON dynstat_salt_del2            =   1.0562267049721E-09
(PID.TID 0000.0001) %MON trAdv_CFL_u_max              =   2.3900941104392E-03
(PID.TID 0000.0001) %MON trAdv_CFL_v_max              =   1.6632026687821E-03
(PID.TID 0000.0001) %MON trAdv_CFL_w_max              =   3.7585635374617E-04
(PID.TID 0000.0001) %MON advcfl_uvel_max              =   2.3599281222928E-03
(PID.TID 0000.0001) %MON advcfl_vvel_max              =   1.7381853941415E-03
(PID.TID 0000.0001) %MON advcfl_wvel_max              =   3.6481420735020E-04
(PID.TID 0000.0001) %MON advcfl_W_hf_max              =   3.8139667132066E-04
(PID.TID 0000.0001) %MON pe_b_mean                    =   1.2375180345986E-10
(PID.TID 0000.0001) %MON ke_max                       =   4.9286987475361E-03
(PID.TID 0000.0001) %MON ke_mean                      =   6.0427052436991E-06
(PID.TID 0000.0001) %MON ke_vol                       =   8.2635254160858E+14
(PID.TID 0000.0001) %MON vort_r_min                   =  -7.8564584792488E-06
(PID.TID 0000.0001) %MON vort_r_max                   =   3.9230663047449E-05
(PID.TID 0000.0001) %MON vort_a_mean                  =   6.9142466381008E-04
(PID.TID 0000.0001) %MON vort_a_sd                    =   1.4242566558977E-06
(PID.TID 0000.0001) %MON vort_p_mean                  =   6.9569812303954E-04
(PID.TID 0000.0001) %MON vort_p_sd                    =   9.4069674270061E-05
(PID.TID 0000.0001) %MON surfExpan_theta_mean         =  -1.6922279409050E-13
(PID.TID 0000.0001) %MON surfExpan_salt_mean          =  -2.0229067215459E-22
(PID.TID 0000.0001) // =======================================================
(PID.TID 0000.0001) // End MONITOR dynamic field statistics
(PID.TID 0000.0001) // =======================================================
(PID.TID 0000.0001) // =======================================================
(PID.TID 0000.0001) // Begin OBCS MONITOR field statistics
(PID.TID 0000.0001) // =======================================================
(PID.TID 0000.0001) %MON obc_S_vVel_max               =   2.3757879574124E-02
(PID.TID 0000.0001) %MON obc_S_vVel_min               =  -1.4077693487811E-04
(PID.TID 0000.0001) %MON obc_S_vVel_mean              =  -1.2658373237187E-20
(PID.TID 0000.0001) %MON obc_S_vVel_sd                =   1.0729005515394E-03
(PID.TID 0000.0001) %MON obc_S_vVel_Int               =  -2.1493917756743E-11
(PID.TID 0000.0001) // =======================================================
(PID.TID 0000.0001) // End OBCS MONITOR field statistics
(PID.TID 0000.0001) // =======================================================
 EXTERNAL_FIELDS_LOAD,      1160 : iP,iLd,i0,i1=   58   59   58   59 ; Wght=  0.5000000000  0.5000000000
 cg2d: Sum(rhs),rhsMax =  -2.21689333557151E-12  5.03641253685372E-04
 EXTERNAL_FIELDS_LOAD,      1161 : iP,iLd,i0,i1=   58   59   58   59 ; Wght=  0.4500000000  0.5500000000
 cg2d: Sum(rhs),rhsMax =  -1.54898316395702E-12  5.38798101699177E-04
 EXTERNAL_FIELDS_LOAD,      1162 : iP,iLd,i0,i1=   58   59   58   59 ; Wght=  0.4000000000  0.6000000000
 cg2d: Sum(rhs),rhsMax =  -2.58637555816676E-12  5.72630022229258E-04
 EXTERNAL_FIELDS_LOAD,      1163 : iP,iLd,i0,i1=   58   59   58   59 ; Wght=  0.3500000000  0.6500000000
 cg2d: Sum(rhs),rhsMax =  -1.36424205265939E-12  6.05036370418183E-04
 EXTERNAL_FIELDS_LOAD,      1164 : iP,iLd,i0,i1=   58   59   58   59 ; Wght=  0.3000000000  0.7000000000
 cg2d: Sum(rhs),rhsMax =  -1.47792889038101E-12  6.35918145348375E-04
 EXTERNAL_FIELDS_LOAD,      1165 : iP,iLd,i0,i1=   58   59   58   59 ; Wght=  0.2500000000  0.7500000000
 cg2d: Sum(rhs),rhsMax =  -2.99849034490762E-12  6.65178305382455E-04
 EXTERNAL_FIELDS_LOAD,      1166 : iP,iLd,i0,i1=   58   59   58   59 ; Wght=  0.2000000000  0.8000000000
 cg2d: Sum(rhs),rhsMax =  -2.87059265247080E-12  6.92724171303243E-04
 EXTERNAL_FIELDS_LOAD,      1167 : iP,iLd,i0,i1=   58   59   58   59 ; Wght=  0.1500000000  0.8500000000
 cg2d: Sum(rhs),rhsMax =  -1.56319401867222E-12  7.18463390520221E-04
 EXTERNAL_FIELDS_LOAD,      1168 : iP,iLd,i0,i1=   58   59   58   59 ; Wght=  0.1000000000  0.9000000000
 cg2d: Sum(rhs),rhsMax =  -2.11741735256510E-12  7.42305249962087E-04
 EXTERNAL_FIELDS_LOAD,      1169 : iP,iLd,i0,i1=   58   59   58   59 ; Wght=  0.0500000000  0.9500000000
 cg2d: Sum(rhs),rhsMax =  -2.16004991671070E-12  7.64163853124810E-04
 EXTERNAL_FIELDS_LOAD,      1170 : iP,iLd,i0,i1=   58   59   59   60 ; Wght=  1.0000000000  0.0000000000
 EXTERNAL_FIELDS_LOAD, it=      1170 : Reading new data, i0,i1=   59   60 (prev=   58   59 )
(PID.TID 0000.0001)  MDS_READ_FIELD: opening global file: ../input/merid_halfgauss2p5hr_272x320.bin
(PID.TID 0000.0001)  MDS_READ_FIELD: opening global file: ../input/merid_halfgauss2p5hr_272x320.bin
 cg2d: Sum(rhs),rhsMax =  -2.01794136955868E-12  7.83956959481068E-04
 EXTERNAL_FIELDS_LOAD,      1171 : iP,iLd,i0,i1=   59   60   59   60 ; Wght=  0.9500000000  0.0500000000
 cg2d: Sum(rhs),rhsMax =  -2.60058641288197E-12  8.01609386249556E-04
 EXTERNAL_FIELDS_LOAD,      1172 : iP,iLd,i0,i1=   59   60   59   60 ; Wght=  0.9000000000  0.1000000000
 cg2d: Sum(rhs),rhsMax =  -2.54374299402116E-12  8.17050279572191E-04
 EXTERNAL_FIELDS_LOAD,      1173 : iP,iLd,i0,i1=   59   60   59   60 ; Wght=  0.8500000000  0.1500000000
 cg2d: Sum(rhs),rhsMax =  -8.66862137627322E-13  8.30204650224362E-04
 EXTERNAL_FIELDS_LOAD,      1174 : iP,iLd,i0,i1=   59   60   59   60 ; Wght=  0.8000000000  0.2000000000
 cg2d: Sum(rhs),rhsMax =  -1.49213974509621E-12  8.41008328308555E-04
 EXTERNAL_FIELDS_LOAD,      1175 : iP,iLd,i0,i1=   59   60   59   60 ; Wght=  0.7500000000  0.2500000000
 cg2d: Sum(rhs),rhsMax =  -1.50635059981141E-12  8.49402570954715E-04
 EXTERNAL_FIELDS_LOAD,      1176 : iP,iLd,i0,i1=   59   60   59   60 ; Wght=  0.7000000000  0.3000000000
 cg2d: Sum(rhs),rhsMax =  -4.83169060316868E-13  8.55334404953548E-04
 EXTERNAL_FIELDS_LOAD,      1177 : iP,iLd,i0,i1=   59   60   59   60 ; Wght=  0.6500000000  0.3500000000
 cg2d: Sum(rhs),rhsMax =   7.10542735760100E-13  8.58756959614486E-04
 EXTERNAL_FIELDS_LOAD,      1178 : iP,iLd,i0,i1=   59   60   59   60 ; Wght=  0.6000000000  0.4000000000
 cg2d: Sum(rhs),rhsMax =  -1.50635059981141E-12  8.59629787358923E-04
 EXTERNAL_FIELDS_LOAD,      1179 : iP,iLd,i0,i1=   59   60   59   60 ; Wght=  0.5500000000  0.4500000000
 cg2d: Sum(rhs),rhsMax =  -9.94759830064140E-13  8.57919169970864E-04
(PID.TID 0000.0001)      cg2d_init_res =   1.07256011017451E-01
(PID.TID 0000.0001)      cg2d_iters(min,last) =      -1      31
(PID.TID 0000.0001)      cg2d_last_res =   7.52805974682608E-08
(PID.TID 0000.0001) // =======================================================
(PID.TID 0000.0001) // Begin MONITOR dynamic field statistics
(PID.TID 0000.0001) // =======================================================
(PID.TID 0000.0001) %MON time_tsnumber                =                  1180
(PID.TID 0000.0001) %MON time_secondsf                =   7.0800000000000E+04
(PID.TID 0000.0001) %MON dynstat_eta_max              =   7.5977017262602E-04
(PID.TID 0000.0001) %MON dynstat_eta_min              =  -5.4123361434423E-04
(PID.TID 0000.0001) %MON dynstat_eta_mean             =   1.2730826300929E-19
(PID.TID 0000.0001) %MON dynstat_eta_sd               =   3.7201780069431E-04
(PID.TID 0000.0001) %MON dynstat_eta_del2             =   2.4549137921997E-08
(PID.TID 0000.0001) %MON dynstat_uvel_max             =   4.9375400235381E-03
(PID.TID 0000.0001) %MON dynstat_uvel_min             =  -3.3856140876677E-02
(PID.TID 0000.0001) %MON dynstat_uvel_mean            =   3.9176170084274E-05
(PID.TID 0000.0001) %MON dynstat_uvel_sd              =   6.3440829960280E-04
(PID.TID 0000.0001) %MON dynstat_uvel_del2            =   8.2460729543244E-08
(PID.TID 0000.0001) %MON dynstat_vvel_max             =   8.6227968718968E-02
(PID.TID 0000.0001) %MON dynstat_vvel_min             =  -6.2536893051019E-03
(PID.TID 0000.0001) %MON dynstat_vvel_mean            =   2.9915175859096E-06
(PID.TID 0000.0001) %MON dynstat_vvel_sd              =   3.4121956109018E-03
(PID.TID 0000.0001) %MON dynstat_vvel_del2            =   8.1093868852472E-08
(PID.TID 0000.0001) %MON dynstat_wvel_max             =   6.8244263444104E-06
(PID.TID 0000.0001) %MON dynstat_wvel_min             =  -2.3142045765797E-05
(PID.TID 0000.0001) %MON dynstat_wvel_mean            =  -1.4038899876091E-07
(PID.TID 0000.0001) %MON dynstat_wvel_sd              =   1.1472269264516E-06
(PID.TID 0000.0001) %MON dynstat_wvel_del2            =   5.3504785970002E-10
(PID.TID 0000.0001) %MON dynstat_theta_max            =   1.6578416699155E+01
(PID.TID 0000.0001) %MON dynstat_theta_min            =   4.1846070092932E+00
(PID.TID 0000.0001) %MON dynstat_theta_mean           =   7.5988656336781E+00
(PID.TID 0000.0001) %MON dynstat_theta_sd             =   3.5908466913705E+00
(PID.TID 0000.0001) %MON dynstat_theta_del2           =   1.9139627842792E-08
(PID.TID 0000.0001) %MON dynstat_salt_max             =   3.4476098805884E+01
(PID.TID 0000.0001) %MON dynstat_salt_min             =   3.3629999999992E+01
(PID.TID 0000.0001) %MON dynstat_salt_mean            =   3.4188927881171E+01
(PID.TID 0000.0001) %MON dynstat_salt_sd              =   2.7006993447884E-01
(PID.TID 0000.0001) %MON dynstat_salt_del2            =   6.9119239098717E-10
(PID.TID 0000.0001) %MON trAdv_CFL_u_max              =   1.2083601103448E-03
(PID.TID 0000.0001) %MON trAdv_CFL_v_max              =   2.5675860126392E-03
(PID.TID 0000.0001) %MON trAdv_CFL_w_max              =   4.7329718712831E-04
(PID.TID 0000.0001) %MON advcfl_uvel_max              =   1.1168791270571E-03
(PID.TID 0000.0001) %MON advcfl_vvel_max              =   2.5747377939375E-03
(PID.TID 0000.0001) %MON advcfl_wvel_max              =   4.5798674509297E-04
(PID.TID 0000.0001) %MON advcfl_W_hf_max              =   4.7880432441538E-04
(PID.TID 0000.0001) %MON pe_b_mean                    =   7.0913126118990E-10
(PID.TID 0000.0001) %MON ke_max                       =   3.6822768725138E-03
(PID.TID 0000.0001) %MON ke_mean                      =   6.0122014110504E-06
(PID.TID 0000.0001) %MON ke_vol                       =   8.2635254160858E+14
(PID.TID 0000.0001) %MON vort_r_min                   =  -4.2835500262195E-06
(PID.TID 0000.0001) %MON vort_r_max                   =   1.8566674128949E-05
(PID.TID 0000.0001) %MON vort_a_mean                  =   6.9142466381008E-04
(PID.TID 0000.0001) %MON vort_a_sd                    =   1.4204523481151E-06
(PID.TID 0000.0001) %MON vort_p_mean                  =   6.9569812303954E-04
(PID.TID 0000.0001) %MON vort_p_sd                    =   9.4067753823162E-05
(PID.TID 0000.0001) %MON surfExpan_theta_mean         =   2.3384771821053E-15
(PID.TID 0000.0001) %MON surfExpan_salt_mean          =   1.6773268232818E-21
(PID.TID 0000.0001) // =======================================================
(PID.TID 0000.0001) // End MONITOR dynamic field statistics
(PID.TID 0000.0001) // =======================================================
(PID.TID 0000.0001) // =======================================================
(PID.TID 0000.0001) // Begin OBCS MONITOR field statistics
(PID.TID 0000.0001) // =======================================================
(PID.TID 0000.0001) %MON obc_S_vVel_max               =   7.3416633346468E-02
(PID.TID 0000.0001) %MON obc_S_vVel_min               =  -4.1579099269607E-04
(PID.TID 0000.0001) %MON obc_S_vVel_mean              =  -6.2450764360917E-20
(PID.TID 0000.0001) %MON obc_S_vVel_sd                =   3.3154926885756E-03
(PID.TID 0000.0001) %MON obc_S_vVel_Int               =  -1.0604139788484E-10
(PID.TID 0000.0001) // =======================================================
(PID.TID 0000.0001) // End OBCS MONITOR field statistics
(PID.TID 0000.0001) // =======================================================
 EXTERNAL_FIELDS_LOAD,      1180 : iP,iLd,i0,i1=   59   60   59   60 ; Wght=  0.5000000000  0.5000000000
 cg2d: Sum(rhs),rhsMax =   2.84217094304040E-14  8.53598407715431E-04
 EXTERNAL_FIELDS_LOAD,      1181 : iP,iLd,i0,i1=   59   60   59   60 ; Wght=  0.4500000000  0.5500000000
 cg2d: Sum(rhs),rhsMax =  -1.43529632623540E-12  8.46648089707383E-04
 EXTERNAL_FIELDS_LOAD,      1182 : iP,iLd,i0,i1=   59   60   59   60 ; Wght=  0.4000000000  0.6000000000
 cg2d: Sum(rhs),rhsMax =  -1.67688085639384E-12  8.37056342374659E-04
 EXTERNAL_FIELDS_LOAD,      1183 : iP,iLd,i0,i1=   59   60   59   60 ; Wght=  0.3500000000  0.6500000000
 cg2d: Sum(rhs),rhsMax =  -1.13686837721616E-12  8.24819054697407E-04
 EXTERNAL_FIELDS_LOAD,      1184 : iP,iLd,i0,i1=   59   60   59   60 ; Wght=  0.3000000000  0.7000000000
 cg2d: Sum(rhs),rhsMax =  -1.43529632623540E-12  8.09940077641036E-04
 EXTERNAL_FIELDS_LOAD,      1185 : iP,iLd,i0,i1=   59   60   59   60 ; Wght=  0.2500000000  0.7500000000
 cg2d: Sum(rhs),rhsMax =  -2.06057393370429E-12  7.92431395829746E-04
 EXTERNAL_FIELDS_LOAD,      1186 : iP,iLd,i0,i1=   59   60   59   60 ; Wght=  0.2000000000  0.8000000000
 cg2d: Sum(rhs),rhsMax =   3.97903932025656E-13  7.72313269849600E-04
 EXTERNAL_FIELDS_LOAD,      1187 : iP,iLd,i0,i1=   59   60   59   60 ; Wght=  0.1500000000  0.8500000000
 cg2d: Sum(rhs),rhsMax =  -2.84217094304040E-13  7.49614347069228E-04
 EXTERNAL_FIELDS_LOAD,      1188 : iP,iLd,i0,i1=   59   60   59   60 ; Wght=  0.1000000000  0.9000000000
 cg2d: Sum(rhs),rhsMax =  -4.26325641456060E-13  7.24371739842462E-04
 EXTERNAL_FIELDS_LOAD,      1189 : iP,iLd,i0,i1=   59   60   59   60 ; Wght=  0.0500000000  0.9500000000
 cg2d: Sum(rhs),rhsMax =  -1.09423581307055E-12  6.96631069574387E-04
 EXTERNAL_FIELDS_LOAD,      1190 : iP,iLd,i0,i1=   59   60   60    1 ; Wght=  1.0000000000  0.0000000000
 EXTERNAL_FIELDS_LOAD, it=      1190 : Reading new data, i0,i1=   60    1 (prev=   59   60 )
(PID.TID 0000.0001)  MDS_READ_FIELD: opening global file: ../input/merid_halfgauss2p5hr_272x320.bin
(PID.TID 0000.0001)  MDS_READ_FIELD: opening global file: ../input/merid_halfgauss2p5hr_272x320.bin
 cg2d: Sum(rhs),rhsMax =  -2.60058641288197E-12  6.66446475166051E-04
 EXTERNAL_FIELDS_LOAD,      1191 : iP,iLd,i0,i1=   60    1   60    1 ; Wght=  0.9500000000  0.0500000000
 cg2d: Sum(rhs),rhsMax =  -1.27897692436818E-12  6.34547284448636E-04
 EXTERNAL_FIELDS_LOAD,      1192 : iP,iLd,i0,i1=   60    1   60    1 ; Wght=  0.9000000000  0.1000000000
 cg2d: Sum(rhs),rhsMax =  -1.30739863379858E-12  6.01399563573969E-04
 EXTERNAL_FIELDS_LOAD,      1193 : iP,iLd,i0,i1=   60    1   60    1 ; Wght=  0.8500000000  0.1500000000
 cg2d: Sum(rhs),rhsMax =  -2.41584530158434E-12  5.67428318483335E-04
 EXTERNAL_FIELDS_LOAD,      1194 : iP,iLd,i0,i1=   60    1   60    1 ; Wght=  0.8000000000  0.2000000000
 cg2d: Sum(rhs),rhsMax =  -1.42108547152020E-12  5.33010720762443E-04
 EXTERNAL_FIELDS_LOAD,      1195 : iP,iLd,i0,i1=   60    1   60    1 ; Wght=  0.7500000000  0.2500000000
 cg2d: Sum(rhs),rhsMax =  -1.81898940354586E-12  4.98471756234578E-04
 EXTERNAL_FIELDS_LOAD,      1196 : iP,iLd,i0,i1=   60    1   60    1 ; Wght=  0.7000000000  0.3000000000
 cg2d: Sum(rhs),rhsMax =  -1.40687461680500E-12  4.64082623246040E-04
 EXTERNAL_FIELDS_LOAD,      1197 : iP,iLd,i0,i1=   60    1   60    1 ; Wght=  0.6500000000  0.3500000000
 cg2d: Sum(rhs),rhsMax =  -1.86162196769146E-12  4.30061370231146E-04
 EXTERNAL_FIELDS_LOAD,      1198 : iP,iLd,i0,i1=   60    1   60    1 ; Wght=  0.6000000000  0.4000000000
 cg2d: Sum(rhs),rhsMax =  -3.51008111465489E-12  3.96575296035170E-04
 EXTERNAL_FIELDS_LOAD,      1199 : iP,iLd,i0,i1=   60    1   60    1 ; Wght=  0.5500000000  0.4500000000
 cg2d: Sum(rhs),rhsMax =  -2.89901436190121E-12  3.63744646597929E-04
(PID.TID 0000.0001)      cg2d_init_res =   3.10928305035590E+00
(PID.TID 0000.0001)      cg2d_iters(min,last) =      -1      37
(PID.TID 0000.0001)      cg2d_last_res =   9.09445698763085E-08
(PID.TID 0000.0001) // =======================================================
(PID.TID 0000.0001) // Begin MONITOR dynamic field statistics
(PID.TID 0000.0001) // =======================================================
(PID.TID 0000.0001) %MON time_tsnumber                =                  1200
(PID.TID 0000.0001) %MON time_secondsf                =   7.2000000000000E+04
(PID.TID 0000.0001) %MON dynstat_eta_max              =   3.2418474794290E-04
(PID.TID 0000.0001) %MON dynstat_eta_min              =  -2.5367823495974E-04
(PID.TID 0000.0001) %MON dynstat_eta_mean             =   1.6183253772367E-19
(PID.TID 0000.0001) %MON dynstat_eta_sd               =   1.7891852036653E-04
(PID.TID 0000.0001) %MON dynstat_eta_del2             =   5.9521760125998E-09
(PID.TID 0000.0001) %MON dynstat_uvel_max             =   6.2643640482176E-02
(PID.TID 0000.0001) %MON dynstat_uvel_min             =  -3.2986426446142E-03
(PID.TID 0000.0001) %MON dynstat_uvel_mean            =   1.9768796979635E-05
(PID.TID 0000.0001) %MON dynstat_uvel_sd              =   2.1627439924913E-03
(PID.TID 0000.0001) %MON dynstat_uvel_del2            =   7.5160280209413E-08
(PID.TID 0000.0001) %MON dynstat_vvel_max             =   7.6083019035069E-02
(PID.TID 0000.0001) %MON dynstat_vvel_min             =  -7.6069081769693E-03
(PID.TID 0000.0001) %MON dynstat_vvel_mean            =  -4.4117110304644E-05
(PID.TID 0000.0001) %MON dynstat_vvel_sd              =   2.7200854160801E-03
(PID.TID 0000.0001) %MON dynstat_vvel_del2            =   8.3972750678869E-08
(PID.TID 0000.0001) %MON dynstat_wvel_max             =   8.0332154162527E-06
(PID.TID 0000.0001) %MON dynstat_wvel_min             =  -1.8335090248581E-05
(PID.TID 0000.0001) %MON dynstat_wvel_mean            =  -1.5108074904267E-07
(PID.TID 0000.0001) %MON dynstat_wvel_sd              =   9.2828881785202E-07
(PID.TID 0000.0001) %MON dynstat_wvel_del2            =   4.1776756283764E-10
(PID.TID 0000.0001) %MON dynstat_theta_max            =   1.6578411291694E+01
(PID.TID 0000.0001) %MON dynstat_theta_min            =   4.1846090044674E+00
(PID.TID 0000.0001) %MON dynstat_theta_mean           =   7.5988689158928E+00
(PID.TID 0000.0001) %MON dynstat_theta_sd             =   3.5908490646303E+00
(PID.TID 0000.0001) %MON dynstat_theta_del2           =   2.9983642911681E-08
(PID.TID 0000.0001) %MON dynstat_salt_max             =   3.4476098602522E+01
(PID.TID 0000.0001) %MON dynstat_salt_min             =   3.3629999999991E+01
(PID.TID 0000.0001) %MON dynstat_salt_mean            =   3.4188927683255E+01
(PID.TID 0000.0001) %MON dynstat_salt_sd              =   2.7007003518920E-01
(PID.TID 0000.0001) %MON dynstat_salt_del2            =   1.1911181583345E-09
(PID.TID 0000.0001) %MON trAdv_CFL_u_max              =   1.8113677903615E-03
(PID.TID 0000.0001) %MON trAdv_CFL_v_max              =   2.3044759154579E-03
(PID.TID 0000.0001) %MON trAdv_CFL_w_max              =   5.0421514168951E-04
(PID.TID 0000.0001) %MON advcfl_uvel_max              =   1.8753707180301E-03
(PID.TID 0000.0001) %MON advcfl_vvel_max              =   2.2718130497184E-03
(PID.TID 0000.0001) %MON advcfl_wvel_max              =   4.7830670213689E-04
(PID.TID 0000.0001) %MON advcfl_W_hf_max              =   5.0004791587039E-04
(PID.TID 0000.0001) %MON pe_b_mean                    =   1.6402490131811E-10
(PID.TID 0000.0001) %MON ke_max                       =   4.6162668732951E-03
(PID.TID 0000.0001) %MON ke_mean                      =   6.0271427865083E-06
(PID.TID 0000.0001) %MON ke_vol                       =   8.2635254160858E+14
(PID.TID 0000.0001) %MON vort_r_min                   =  -1.3958945999174E-05
(PID.TID 0000.0001) %MON vort_r_max                   =   6.1472399253129E-06
(PID.TID 0000.0001) %MON vort_a_mean                  =   6.9142466381008E-04
(PID.TID 0000.0001) %MON vort_a_sd                    =   1.4199706594957E-06
(PID.TID 0000.0001) %MON vort_p_mean                  =   6.9569812303954E-04
(PID.TID 0000.0001) %MON vort_p_sd                    =   9.4064274483042E-05
(PID.TID 0000.0001) %MON surfExpan_theta_mean         =  -4.1433270238826E-13
(PID.TID 0000.0001) %MON surfExpan_salt_mean          =  -4.5515401234783E-21
(PID.TID 0000.0001) // =======================================================
(PID.TID 0000.0001) // End MONITOR dynamic field statistics
(PID.TID 0000.0001) // =======================================================
(PID.TID 0000.0001) // =======================================================
(PID.TID 0000.0001) // Begin OBCS MONITOR field statistics
(PID.TID 0000.0001) // =======================================================
(PID.TID 0000.0001) %MON obc_S_vVel_max               =   7.6083019035069E-02
(PID.TID 0000.0001) %MON obc_S_vVel_min               =  -4.5769672194168E-04
(PID.TID 0000.0001) %MON obc_S_vVel_mean              =  -1.3289618064568E-19
(PID.TID 0000.0001) %MON obc_S_vVel_sd                =   3.4363143878644E-03
(PID.TID 0000.0001) %MON obc_S_vVel_Int               =  -2.2565771473637E-10
(PID.TID 0000.0001) // =======================================================
(PID.TID 0000.0001) // End OBCS MONITOR field statistics
(PID.TID 0000.0001) // =======================================================
(PID.TID 0000.0001) %CHECKPOINT      1200 ckptB
(PID.TID 0000.0001)   Seconds in section "ALL                    [THE_MODEL_MAIN]":
(PID.TID 0000.0001)           User time:   1202.1347963120788
(PID.TID 0000.0001)         System time:   11.543202167376876
(PID.TID 0000.0001)     Wall clock time:   1218.6375319957733
(PID.TID 0000.0001)          No. starts:           1
(PID.TID 0000.0001)           No. stops:           1
(PID.TID 0000.0001)   Seconds in section "INITIALISE_FIXED       [THE_MODEL_MAIN]":
(PID.TID 0000.0001)           User time:   13.549864567816257
(PID.TID 0000.0001)         System time:  0.23159599304199219
(PID.TID 0000.0001)     Wall clock time:   13.890555143356323
(PID.TID 0000.0001)          No. starts:           1
(PID.TID 0000.0001)           No. stops:           1
(PID.TID 0000.0001)   Seconds in section "THE_MAIN_LOOP          [THE_MODEL_MAIN]":
(PID.TID 0000.0001)           User time:   1188.1641426086426
(PID.TID 0000.0001)         System time:   11.282785803079605
(PID.TID 0000.0001)     Wall clock time:   1204.2961158752441
(PID.TID 0000.0001)          No. starts:           1
(PID.TID 0000.0001)           No. stops:           1
(PID.TID 0000.0001)   Seconds in section "INITIALISE_VARIA    [THE_MAIN_LOOP]":
(PID.TID 0000.0001)           User time:   15.579040527343750
(PID.TID 0000.0001)         System time:  0.24506598711013794
(PID.TID 0000.0001)     Wall clock time:   15.901662111282349
(PID.TID 0000.0001)          No. starts:           1
(PID.TID 0000.0001)           No. stops:           1
(PID.TID 0000.0001)   Seconds in section "MAIN LOOP           [THE_MAIN_LOOP]":
(PID.TID 0000.0001)           User time:   1172.5850963592529
(PID.TID 0000.0001)         System time:   11.037717819213867
(PID.TID 0000.0001)     Wall clock time:   1188.3944439888000
(PID.TID 0000.0001)          No. starts:           1
(PID.TID 0000.0001)           No. stops:           1
(PID.TID 0000.0001)   Seconds in section "MAIN_DO_LOOP        [THE_MAIN_LOOP]":
(PID.TID 0000.0001)           User time:   1172.5811367034912
(PID.TID 0000.0001)         System time:   11.037560641765594
(PID.TID 0000.0001)     Wall clock time:   1188.3910245895386
(PID.TID 0000.0001)          No. starts:        1200
(PID.TID 0000.0001)           No. stops:        1200
(PID.TID 0000.0001)   Seconds in section "FORWARD_STEP        [MAIN_DO_LOOP]":
(PID.TID 0000.0001)           User time:   1172.5759391784668
(PID.TID 0000.0001)         System time:   11.037216722965240
(PID.TID 0000.0001)     Wall clock time:   1188.3841035366058
(PID.TID 0000.0001)          No. starts:        1200
(PID.TID 0000.0001)           No. stops:        1200
(PID.TID 0000.0001)   Seconds in section "LOAD_FIELDS_DRIVER  [FORWARD_STEP]":
(PID.TID 0000.0001)           User time:  0.21907615661621094
(PID.TID 0000.0001)         System time:   3.7967801094055176E-002
(PID.TID 0000.0001)     Wall clock time:  0.32683324813842773
(PID.TID 0000.0001)          No. starts:        1200
(PID.TID 0000.0001)           No. stops:        1200
(PID.TID 0000.0001)   Seconds in section "EXTERNAL_FLDS_LOAD [LOAD_FLDS_DRIVER]":
(PID.TID 0000.0001)           User time:  0.21285247802734375
(PID.TID 0000.0001)         System time:   3.6595225334167480E-002
(PID.TID 0000.0001)     Wall clock time:  0.31990170478820801
(PID.TID 0000.0001)          No. starts:        1200
(PID.TID 0000.0001)           No. stops:        1200
(PID.TID 0000.0001)   Seconds in section "DO_ATMOSPHERIC_PHYS [FORWARD_STEP]":
(PID.TID 0000.0001)           User time:   3.4103393554687500E-003
(PID.TID 0000.0001)         System time:   1.7225742340087891E-004
(PID.TID 0000.0001)     Wall clock time:   3.5991668701171875E-003
(PID.TID 0000.0001)          No. starts:        1200
(PID.TID 0000.0001)           No. stops:        1200
(PID.TID 0000.0001)   Seconds in section "DO_OCEANIC_PHYS     [FORWARD_STEP]":
(PID.TID 0000.0001)           User time:   21.389093399047852
(PID.TID 0000.0001)         System time:  0.13492202758789062
(PID.TID 0000.0001)     Wall clock time:   21.633483886718750
(PID.TID 0000.0001)          No. starts:        1200
(PID.TID 0000.0001)           No. stops:        1200
(PID.TID 0000.0001)   Seconds in section "THERMODYNAMICS      [FORWARD_STEP]":
(PID.TID 0000.0001)           User time:   181.23344230651855
(PID.TID 0000.0001)         System time:  0.73350501060485840
(PID.TID 0000.0001)     Wall clock time:   182.75521469116211
(PID.TID 0000.0001)          No. starts:        1200
(PID.TID 0000.0001)           No. stops:        1200
(PID.TID 0000.0001)   Seconds in section "DYNAMICS            [FORWARD_STEP]":
(PID.TID 0000.0001)           User time:   189.21063804626465
(PID.TID 0000.0001)         System time:  0.82688957452774048
(PID.TID 0000.0001)     Wall clock time:   190.76588821411133
(PID.TID 0000.0001)          No. starts:        1200
(PID.TID 0000.0001)           No. stops:        1200
(PID.TID 0000.0001)   Seconds in section "SOLVE_FOR_PRESSURE  [FORWARD_STEP]":
(PID.TID 0000.0001)           User time:   21.819160461425781
(PID.TID 0000.0001)         System time:   9.7969472408294678E-002
(PID.TID 0000.0001)     Wall clock time:   22.016443490982056
(PID.TID 0000.0001)          No. starts:        1200
(PID.TID 0000.0001)           No. stops:        1200
(PID.TID 0000.0001)   Seconds in section "MOM_CORRECTION_STEP [FORWARD_STEP]":
(PID.TID 0000.0001)           User time:   6.8850173950195312
(PID.TID 0000.0001)         System time:   3.6757290363311768E-002
(PID.TID 0000.0001)     Wall clock time:   6.9661586284637451
(PID.TID 0000.0001)          No. starts:        1200
(PID.TID 0000.0001)           No. stops:        1200
(PID.TID 0000.0001)   Seconds in section "INTEGR_CONTINUITY   [FORWARD_STEP]":
(PID.TID 0000.0001)           User time:   10.925891876220703
(PID.TID 0000.0001)         System time:   4.2575359344482422E-002
(PID.TID 0000.0001)     Wall clock time:   10.996455669403076
(PID.TID 0000.0001)          No. starts:        1200
(PID.TID 0000.0001)           No. stops:        1200
(PID.TID 0000.0001)   Seconds in section "TRC_CORRECTION_STEP [FORWARD_STEP]":
(PID.TID 0000.0001)           User time:   3.8185119628906250E-003
(PID.TID 0000.0001)         System time:   1.9520521163940430E-004
(PID.TID 0000.0001)     Wall clock time:   4.0650367736816406E-003
(PID.TID 0000.0001)          No. starts:        1200
(PID.TID 0000.0001)           No. stops:        1200
(PID.TID 0000.0001)   Seconds in section "BLOCKING_EXCHANGES  [FORWARD_STEP]":
(PID.TID 0000.0001)           User time:   38.704780578613281
(PID.TID 0000.0001)         System time:  0.12630105018615723
(PID.TID 0000.0001)     Wall clock time:   38.925407171249390
(PID.TID 0000.0001)          No. starts:        1200
(PID.TID 0000.0001)           No. stops:        1200
(PID.TID 0000.0001)   Seconds in section "MONITOR             [FORWARD_STEP]":
(PID.TID 0000.0001)           User time:   6.0115356445312500
(PID.TID 0000.0001)         System time:   1.7566740512847900E-002
(PID.TID 0000.0001)     Wall clock time:   6.0322792530059814
(PID.TID 0000.0001)          No. starts:        1200
(PID.TID 0000.0001)           No. stops:        1200
(PID.TID 0000.0001)   Seconds in section "DO_THE_MODEL_IO     [FORWARD_STEP]":
(PID.TID 0000.0001)           User time:   696.00069236755371
(PID.TID 0000.0001)         System time:   8.3178096413612366
(PID.TID 0000.0001)     Wall clock time:   707.04852914810181
(PID.TID 0000.0001)          No. starts:        1200
(PID.TID 0000.0001)           No. stops:        1200
(PID.TID 0000.0001)   Seconds in section "DO_WRITE_PICKUP     [FORWARD_STEP]":
(PID.TID 0000.0001)           User time:  0.11791038513183594
(PID.TID 0000.0001)         System time:  0.64620476961135864
(PID.TID 0000.0001)     Wall clock time:  0.86066842079162598
(PID.TID 0000.0001)          No. starts:        1200
(PID.TID 0000.0001)           No. stops:        1200
(PID.TID 0000.0001) // ======================================================
(PID.TID 0000.0001) // Tile <-> Tile communication statistics
(PID.TID 0000.0001) // ======================================================
(PID.TID 0000.0001) // o Tile number: 000001
(PID.TID 0000.0001) //         No. X exchanges =              0
(PID.TID 0000.0001) //            Max. X spins =              0
(PID.TID 0000.0001) //            Min. X spins =     1000000000
(PID.TID 0000.0001) //          Total. X spins =              0
(PID.TID 0000.0001) //            Avg. X spins =       0.00E+00
(PID.TID 0000.0001) //         No. Y exchanges =              0
(PID.TID 0000.0001) //            Max. Y spins =              0
(PID.TID 0000.0001) //            Min. Y spins =     1000000000
(PID.TID 0000.0001) //          Total. Y spins =              0
(PID.TID 0000.0001) //            Avg. Y spins =       0.00E+00
(PID.TID 0000.0001) // o Tile number: 000002
(PID.TID 0000.0001) //         No. X exchanges =              0
(PID.TID 0000.0001) //            Max. X spins =              0
(PID.TID 0000.0001) //            Min. X spins =     1000000000
(PID.TID 0000.0001) //          Total. X spins =              0
(PID.TID 0000.0001) //            Avg. X spins =       0.00E+00
(PID.TID 0000.0001) //         No. Y exchanges =              0
(PID.TID 0000.0001) //            Max. Y spins =              0
(PID.TID 0000.0001) //            Min. Y spins =     1000000000
(PID.TID 0000.0001) //          Total. Y spins =              0
(PID.TID 0000.0001) //            Avg. Y spins =       0.00E+00
(PID.TID 0000.0001) // o Tile number: 000003
(PID.TID 0000.0001) //         No. X exchanges =              0
(PID.TID 0000.0001) //            Max. X spins =              0
(PID.TID 0000.0001) //            Min. X spins =     1000000000
(PID.TID 0000.0001) //          Total. X spins =              0
(PID.TID 0000.0001) //            Avg. X spins =       0.00E+00
(PID.TID 0000.0001) //         No. Y exchanges =              0
(PID.TID 0000.0001) //            Max. Y spins =              0
(PID.TID 0000.0001) //            Min. Y spins =     1000000000
(PID.TID 0000.0001) //          Total. Y spins =              0
(PID.TID 0000.0001) //            Avg. Y spins =       0.00E+00
(PID.TID 0000.0001) // o Tile number: 000004
(PID.TID 0000.0001) //         No. X exchanges =              0
(PID.TID 0000.0001) //            Max. X spins =              0
(PID.TID 0000.0001) //            Min. X spins =     1000000000
(PID.TID 0000.0001) //          Total. X spins =              0
(PID.TID 0000.0001) //            Avg. X spins =       0.00E+00
(PID.TID 0000.0001) //         No. Y exchanges =              0
(PID.TID 0000.0001) //            Max. Y spins =              0
(PID.TID 0000.0001) //            Min. Y spins =     1000000000
(PID.TID 0000.0001) //          Total. Y spins =              0
(PID.TID 0000.0001) //            Avg. Y spins =       0.00E+00
(PID.TID 0000.0001) // o Tile number: 000005
(PID.TID 0000.0001) //         No. X exchanges =              0
(PID.TID 0000.0001) //            Max. X spins =              0
(PID.TID 0000.0001) //            Min. X spins =     1000000000
(PID.TID 0000.0001) //          Total. X spins =              0
(PID.TID 0000.0001) //            Avg. X spins =       0.00E+00
(PID.TID 0000.0001) //         No. Y exchanges =              0
(PID.TID 0000.0001) //            Max. Y spins =              0
(PID.TID 0000.0001) //            Min. Y spins =     1000000000
(PID.TID 0000.0001) //          Total. Y spins =              0
(PID.TID 0000.0001) //            Avg. Y spins =       0.00E+00
(PID.TID 0000.0001) // o Tile number: 000006
(PID.TID 0000.0001) //         No. X exchanges =              0
(PID.TID 0000.0001) //            Max. X spins =              0
(PID.TID 0000.0001) //            Min. X spins =     1000000000
(PID.TID 0000.0001) //          Total. X spins =              0
(PID.TID 0000.0001) //            Avg. X spins =       0.00E+00
(PID.TID 0000.0001) //         No. Y exchanges =              0
(PID.TID 0000.0001) //            Max. Y spins =              0
(PID.TID 0000.0001) //            Min. Y spins =     1000000000
(PID.TID 0000.0001) //          Total. Y spins =              0
(PID.TID 0000.0001) //            Avg. Y spins =       0.00E+00
(PID.TID 0000.0001) // o Tile number: 000007
(PID.TID 0000.0001) //         No. X exchanges =              0
(PID.TID 0000.0001) //            Max. X spins =              0
(PID.TID 0000.0001) //            Min. X spins =     1000000000
(PID.TID 0000.0001) //          Total. X spins =              0
(PID.TID 0000.0001) //            Avg. X spins =       0.00E+00
(PID.TID 0000.0001) //         No. Y exchanges =              0
(PID.TID 0000.0001) //            Max. Y spins =              0
(PID.TID 0000.0001) //            Min. Y spins =     1000000000
(PID.TID 0000.0001) //          Total. Y spins =              0
(PID.TID 0000.0001) //            Avg. Y spins =       0.00E+00
(PID.TID 0000.0001) // o Tile number: 000008
(PID.TID 0000.0001) //         No. X exchanges =              0
(PID.TID 0000.0001) //            Max. X spins =              0
(PID.TID 0000.0001) //            Min. X spins =     1000000000
(PID.TID 0000.0001) //          Total. X spins =              0
(PID.TID 0000.0001) //            Avg. X spins =       0.00E+00
(PID.TID 0000.0001) //         No. Y exchanges =              0
(PID.TID 0000.0001) //            Max. Y spins =              0
(PID.TID 0000.0001) //            Min. Y spins =     1000000000
(PID.TID 0000.0001) //          Total. Y spins =              0
(PID.TID 0000.0001) //            Avg. Y spins =       0.00E+00
(PID.TID 0000.0001) // o Tile number: 000009
(PID.TID 0000.0001) //         No. X exchanges =              0
(PID.TID 0000.0001) //            Max. X spins =              0
(PID.TID 0000.0001) //            Min. X spins =     1000000000
(PID.TID 0000.0001) //          Total. X spins =              0
(PID.TID 0000.0001) //            Avg. X spins =       0.00E+00
(PID.TID 0000.0001) //         No. Y exchanges =              0
(PID.TID 0000.0001) //            Max. Y spins =              0
(PID.TID 0000.0001) //            Min. Y spins =     1000000000
(PID.TID 0000.0001) //          Total. Y spins =              0
(PID.TID 0000.0001) //            Avg. Y spins =       0.00E+00
(PID.TID 0000.0001) // o Tile number: 000010
(PID.TID 0000.0001) //         No. X exchanges =              0
(PID.TID 0000.0001) //            Max. X spins =              0
(PID.TID 0000.0001) //            Min. X spins =     1000000000
(PID.TID 0000.0001) //          Total. X spins =              0
(PID.TID 0000.0001) //            Avg. X spins =       0.00E+00
(PID.TID 0000.0001) //         No. Y exchanges =              0
(PID.TID 0000.0001) //            Max. Y spins =              0
(PID.TID 0000.0001) //            Min. Y spins =     1000000000
(PID.TID 0000.0001) //          Total. Y spins =              0
(PID.TID 0000.0001) //            Avg. Y spins =       0.00E+00
(PID.TID 0000.0001) // o Tile number: 000011
(PID.TID 0000.0001) //         No. X exchanges =              0
(PID.TID 0000.0001) //            Max. X spins =              0
(PID.TID 0000.0001) //            Min. X spins =     1000000000
(PID.TID 0000.0001) //          Total. X spins =              0
(PID.TID 0000.0001) //            Avg. X spins =       0.00E+00
(PID.TID 0000.0001) //         No. Y exchanges =              0
(PID.TID 0000.0001) //            Max. Y spins =              0
(PID.TID 0000.0001) //            Min. Y spins =     1000000000
(PID.TID 0000.0001) //          Total. Y spins =              0
(PID.TID 0000.0001) //            Avg. Y spins =       0.00E+00
(PID.TID 0000.0001) // o Tile number: 000012
(PID.TID 0000.0001) //         No. X exchanges =              0
(PID.TID 0000.0001) //            Max. X spins =              0
(PID.TID 0000.0001) //            Min. X spins =     1000000000
(PID.TID 0000.0001) //          Total. X spins =              0
(PID.TID 0000.0001) //            Avg. X spins =       0.00E+00
(PID.TID 0000.0001) //         No. Y exchanges =              0
(PID.TID 0000.0001) //            Max. Y spins =              0
(PID.TID 0000.0001) //            Min. Y spins =     1000000000
(PID.TID 0000.0001) //          Total. Y spins =              0
(PID.TID 0000.0001) //            Avg. Y spins =       0.00E+00
(PID.TID 0000.0001) // o Tile number: 000013
(PID.TID 0000.0001) //         No. X exchanges =              0
(PID.TID 0000.0001) //            Max. X spins =              0
(PID.TID 0000.0001) //            Min. X spins =     1000000000
(PID.TID 0000.0001) //          Total. X spins =              0
(PID.TID 0000.0001) //            Avg. X spins =       0.00E+00
(PID.TID 0000.0001) //         No. Y exchanges =              0
(PID.TID 0000.0001) //            Max. Y spins =              0
(PID.TID 0000.0001) //            Min. Y spins =     1000000000
(PID.TID 0000.0001) //          Total. Y spins =              0
(PID.TID 0000.0001) //            Avg. Y spins =       0.00E+00
(PID.TID 0000.0001) // o Tile number: 000014
(PID.TID 0000.0001) //         No. X exchanges =              0
(PID.TID 0000.0001) //            Max. X spins =              0
(PID.TID 0000.0001) //            Min. X spins =     1000000000
(PID.TID 0000.0001) //          Total. X spins =              0
(PID.TID 0000.0001) //            Avg. X spins =       0.00E+00
(PID.TID 0000.0001) //         No. Y exchanges =              0
(PID.TID 0000.0001) //            Max. Y spins =              0
(PID.TID 0000.0001) //            Min. Y spins =     1000000000
(PID.TID 0000.0001) //          Total. Y spins =              0
(PID.TID 0000.0001) //            Avg. Y spins =       0.00E+00
(PID.TID 0000.0001) // o Tile number: 000015
(PID.TID 0000.0001) //         No. X exchanges =              0
(PID.TID 0000.0001) //            Max. X spins =              0
(PID.TID 0000.0001) //            Min. X spins =     1000000000
(PID.TID 0000.0001) //          Total. X spins =              0
(PID.TID 0000.0001) //            Avg. X spins =       0.00E+00
(PID.TID 0000.0001) //         No. Y exchanges =              0
(PID.TID 0000.0001) //            Max. Y spins =              0
(PID.TID 0000.0001) //            Min. Y spins =     1000000000
(PID.TID 0000.0001) //          Total. Y spins =              0
(PID.TID 0000.0001) //            Avg. Y spins =       0.00E+00
(PID.TID 0000.0001) // o Tile number: 000016
(PID.TID 0000.0001) //         No. X exchanges =              0
(PID.TID 0000.0001) //            Max. X spins =              0
(PID.TID 0000.0001) //            Min. X spins =     1000000000
(PID.TID 0000.0001) //          Total. X spins =              0
(PID.TID 0000.0001) //            Avg. X spins =       0.00E+00
(PID.TID 0000.0001) //         No. Y exchanges =              0
(PID.TID 0000.0001) //            Max. Y spins =              0
(PID.TID 0000.0001) //            Min. Y spins =     1000000000
(PID.TID 0000.0001) //          Total. Y spins =              0
(PID.TID 0000.0001) //            Avg. Y spins =       0.00E+00
(PID.TID 0000.0001) // o Tile number: 000017
(PID.TID 0000.0001) //         No. X exchanges =              0
(PID.TID 0000.0001) //            Max. X spins =              0
(PID.TID 0000.0001) //            Min. X spins =     1000000000
(PID.TID 0000.0001) //          Total. X spins =              0
(PID.TID 0000.0001) //            Avg. X spins =       0.00E+00
(PID.TID 0000.0001) //         No. Y exchanges =              0
(PID.TID 0000.0001) //            Max. Y spins =              0
(PID.TID 0000.0001) //            Min. Y spins =     1000000000
(PID.TID 0000.0001) //          Total. Y spins =              0
(PID.TID 0000.0001) //            Avg. Y spins =       0.00E+00
(PID.TID 0000.0001) // o Tile number: 000018
(PID.TID 0000.0001) //         No. X exchanges =              0
(PID.TID 0000.0001) //            Max. X spins =              0
(PID.TID 0000.0001) //            Min. X spins =     1000000000
(PID.TID 0000.0001) //          Total. X spins =              0
(PID.TID 0000.0001) //            Avg. X spins =       0.00E+00
(PID.TID 0000.0001) //         No. Y exchanges =              0
(PID.TID 0000.0001) //            Max. Y spins =              0
(PID.TID 0000.0001) //            Min. Y spins =     1000000000
(PID.TID 0000.0001) //          Total. Y spins =              0
(PID.TID 0000.0001) //            Avg. Y spins =       0.00E+00
(PID.TID 0000.0001) // o Tile number: 000019
(PID.TID 0000.0001) //         No. X exchanges =              0
(PID.TID 0000.0001) //            Max. X spins =              0
(PID.TID 0000.0001) //            Min. X spins =     1000000000
(PID.TID 0000.0001) //          Total. X spins =              0
(PID.TID 0000.0001) //            Avg. X spins =       0.00E+00
(PID.TID 0000.0001) //         No. Y exchanges =              0
(PID.TID 0000.0001) //            Max. Y spins =              0
(PID.TID 0000.0001) //            Min. Y spins =     1000000000
(PID.TID 0000.0001) //          Total. Y spins =              0
(PID.TID 0000.0001) //            Avg. Y spins =       0.00E+00
(PID.TID 0000.0001) // o Tile number: 000020
(PID.TID 0000.0001) //         No. X exchanges =              0
(PID.TID 0000.0001) //            Max. X spins =              0
(PID.TID 0000.0001) //            Min. X spins =     1000000000
(PID.TID 0000.0001) //          Total. X spins =              0
(PID.TID 0000.0001) //            Avg. X spins =       0.00E+00
(PID.TID 0000.0001) //         No. Y exchanges =              0
(PID.TID 0000.0001) //            Max. Y spins =              0
(PID.TID 0000.0001) //            Min. Y spins =     1000000000
(PID.TID 0000.0001) //          Total. Y spins =              0
(PID.TID 0000.0001) //            Avg. Y spins =       0.00E+00
(PID.TID 0000.0001) // o Tile number: 000021
(PID.TID 0000.0001) //         No. X exchanges =              0
(PID.TID 0000.0001) //            Max. X spins =              0
(PID.TID 0000.0001) //            Min. X spins =     1000000000
(PID.TID 0000.0001) //          Total. X spins =              0
(PID.TID 0000.0001) //            Avg. X spins =       0.00E+00
(PID.TID 0000.0001) //         No. Y exchanges =              0
(PID.TID 0000.0001) //            Max. Y spins =              0
(PID.TID 0000.0001) //            Min. Y spins =     1000000000
(PID.TID 0000.0001) //          Total. Y spins =              0
(PID.TID 0000.0001) //            Avg. Y spins =       0.00E+00
(PID.TID 0000.0001) // o Tile number: 000022
(PID.TID 0000.0001) //         No. X exchanges =              0
(PID.TID 0000.0001) //            Max. X spins =              0
(PID.TID 0000.0001) //            Min. X spins =     1000000000
(PID.TID 0000.0001) //          Total. X spins =              0
(PID.TID 0000.0001) //            Avg. X spins =       0.00E+00
(PID.TID 0000.0001) //         No. Y exchanges =              0
(PID.TID 0000.0001) //            Max. Y spins =              0
(PID.TID 0000.0001) //            Min. Y spins =     1000000000
(PID.TID 0000.0001) //          Total. Y spins =              0
(PID.TID 0000.0001) //            Avg. Y spins =       0.00E+00
(PID.TID 0000.0001) // o Tile number: 000023
(PID.TID 0000.0001) //         No. X exchanges =              0
(PID.TID 0000.0001) //            Max. X spins =              0
(PID.TID 0000.0001) //            Min. X spins =     1000000000
(PID.TID 0000.0001) //          Total. X spins =              0
(PID.TID 0000.0001) //            Avg. X spins =       0.00E+00
(PID.TID 0000.0001) //         No. Y exchanges =              0
(PID.TID 0000.0001) //            Max. Y spins =              0
(PID.TID 0000.0001) //            Min. Y spins =     1000000000
(PID.TID 0000.0001) //          Total. Y spins =              0
(PID.TID 0000.0001) //            Avg. Y spins =       0.00E+00
(PID.TID 0000.0001) // o Tile number: 000024
(PID.TID 0000.0001) //         No. X exchanges =              0
(PID.TID 0000.0001) //            Max. X spins =              0
(PID.TID 0000.0001) //            Min. X spins =     1000000000
(PID.TID 0000.0001) //          Total. X spins =              0
(PID.TID 0000.0001) //            Avg. X spins =       0.00E+00
(PID.TID 0000.0001) //         No. Y exchanges =              0
(PID.TID 0000.0001) //            Max. Y spins =              0
(PID.TID 0000.0001) //            Min. Y spins =     1000000000
(PID.TID 0000.0001) //          Total. Y spins =              0
(PID.TID 0000.0001) //            Avg. Y spins =       0.00E+00
(PID.TID 0000.0001) // o Tile number: 000025
(PID.TID 0000.0001) //         No. X exchanges =              0
(PID.TID 0000.0001) //            Max. X spins =              0
(PID.TID 0000.0001) //            Min. X spins =     1000000000
(PID.TID 0000.0001) //          Total. X spins =              0
(PID.TID 0000.0001) //            Avg. X spins =       0.00E+00
(PID.TID 0000.0001) //         No. Y exchanges =              0
(PID.TID 0000.0001) //            Max. Y spins =              0
(PID.TID 0000.0001) //            Min. Y spins =     1000000000
(PID.TID 0000.0001) //          Total. Y spins =              0
(PID.TID 0000.0001) //            Avg. Y spins =       0.00E+00
(PID.TID 0000.0001) // o Tile number: 000026
(PID.TID 0000.0001) //         No. X exchanges =              0
(PID.TID 0000.0001) //            Max. X spins =              0
(PID.TID 0000.0001) //            Min. X spins =     1000000000
(PID.TID 0000.0001) //          Total. X spins =              0
(PID.TID 0000.0001) //            Avg. X spins =       0.00E+00
(PID.TID 0000.0001) //         No. Y exchanges =              0
(PID.TID 0000.0001) //            Max. Y spins =              0
(PID.TID 0000.0001) //            Min. Y spins =     1000000000
(PID.TID 0000.0001) //          Total. Y spins =              0
(PID.TID 0000.0001) //            Avg. Y spins =       0.00E+00
(PID.TID 0000.0001) // o Tile number: 000027
(PID.TID 0000.0001) //         No. X exchanges =              0
(PID.TID 0000.0001) //            Max. X spins =              0
(PID.TID 0000.0001) //            Min. X spins =     1000000000
(PID.TID 0000.0001) //          Total. X spins =              0
(PID.TID 0000.0001) //            Avg. X spins =       0.00E+00
(PID.TID 0000.0001) //         No. Y exchanges =              0
(PID.TID 0000.0001) //            Max. Y spins =              0
(PID.TID 0000.0001) //            Min. Y spins =     1000000000
(PID.TID 0000.0001) //          Total. Y spins =              0
(PID.TID 0000.0001) //            Avg. Y spins =       0.00E+00
(PID.TID 0000.0001) // o Tile number: 000028
(PID.TID 0000.0001) //         No. X exchanges =              0
(PID.TID 0000.0001) //            Max. X spins =              0
(PID.TID 0000.0001) //            Min. X spins =     1000000000
(PID.TID 0000.0001) //          Total. X spins =              0
(PID.TID 0000.0001) //            Avg. X spins =       0.00E+00
(PID.TID 0000.0001) //         No. Y exchanges =              0
(PID.TID 0000.0001) //            Max. Y spins =              0
(PID.TID 0000.0001) //            Min. Y spins =     1000000000
(PID.TID 0000.0001) //          Total. Y spins =              0
(PID.TID 0000.0001) //            Avg. Y spins =       0.00E+00
(PID.TID 0000.0001) // o Tile number: 000029
(PID.TID 0000.0001) //         No. X exchanges =              0
(PID.TID 0000.0001) //            Max. X spins =              0
(PID.TID 0000.0001) //            Min. X spins =     1000000000
(PID.TID 0000.0001) //          Total. X spins =              0
(PID.TID 0000.0001) //            Avg. X spins =       0.00E+00
(PID.TID 0000.0001) //         No. Y exchanges =              0
(PID.TID 0000.0001) //            Max. Y spins =              0
(PID.TID 0000.0001) //            Min. Y spins =     1000000000
(PID.TID 0000.0001) //          Total. Y spins =              0
(PID.TID 0000.0001) //            Avg. Y spins =       0.00E+00
(PID.TID 0000.0001) // o Tile number: 000030
(PID.TID 0000.0001) //         No. X exchanges =              0
(PID.TID 0000.0001) //            Max. X spins =              0
(PID.TID 0000.0001) //            Min. X spins =     1000000000
(PID.TID 0000.0001) //          Total. X spins =              0
(PID.TID 0000.0001) //            Avg. X spins =       0.00E+00
(PID.TID 0000.0001) //         No. Y exchanges =              0
(PID.TID 0000.0001) //            Max. Y spins =              0
(PID.TID 0000.0001) //            Min. Y spins =     1000000000
(PID.TID 0000.0001) //          Total. Y spins =              0
(PID.TID 0000.0001) //            Avg. Y spins =       0.00E+00
(PID.TID 0000.0001) // o Tile number: 000031
(PID.TID 0000.0001) //         No. X exchanges =              0
(PID.TID 0000.0001) //            Max. X spins =              0
(PID.TID 0000.0001) //            Min. X spins =     1000000000
(PID.TID 0000.0001) //          Total. X spins =              0
(PID.TID 0000.0001) //            Avg. X spins =       0.00E+00
(PID.TID 0000.0001) //         No. Y exchanges =              0
(PID.TID 0000.0001) //            Max. Y spins =              0
(PID.TID 0000.0001) //            Min. Y spins =     1000000000
(PID.TID 0000.0001) //          Total. Y spins =              0
(PID.TID 0000.0001) //            Avg. Y spins =       0.00E+00
(PID.TID 0000.0001) // o Tile number: 000032
(PID.TID 0000.0001) //         No. X exchanges =              0
(PID.TID 0000.0001) //            Max. X spins =              0
(PID.TID 0000.0001) //            Min. X spins =     1000000000
(PID.TID 0000.0001) //          Total. X spins =              0
(PID.TID 0000.0001) //            Avg. X spins =       0.00E+00
(PID.TID 0000.0001) //         No. Y exchanges =              0
(PID.TID 0000.0001) //            Max. Y spins =              0
(PID.TID 0000.0001) //            Min. Y spins =     1000000000
(PID.TID 0000.0001) //          Total. Y spins =              0
(PID.TID 0000.0001) //            Avg. Y spins =       0.00E+00
(PID.TID 0000.0001) // o Tile number: 000033
(PID.TID 0000.0001) //         No. X exchanges =              0
(PID.TID 0000.0001) //            Max. X spins =              0
(PID.TID 0000.0001) //            Min. X spins =     1000000000
(PID.TID 0000.0001) //          Total. X spins =              0
(PID.TID 0000.0001) //            Avg. X spins =       0.00E+00
(PID.TID 0000.0001) //         No. Y exchanges =              0
(PID.TID 0000.0001) //            Max. Y spins =              0
(PID.TID 0000.0001) //            Min. Y spins =     1000000000
(PID.TID 0000.0001) //          Total. Y spins =              0
(PID.TID 0000.0001) //            Avg. Y spins =       0.00E+00
(PID.TID 0000.0001) // o Tile number: 000034
(PID.TID 0000.0001) //         No. X exchanges =              0
(PID.TID 0000.0001) //            Max. X spins =              0
(PID.TID 0000.0001) //            Min. X spins =     1000000000
(PID.TID 0000.0001) //          Total. X spins =              0
(PID.TID 0000.0001) //            Avg. X spins =       0.00E+00
(PID.TID 0000.0001) //         No. Y exchanges =              0
(PID.TID 0000.0001) //            Max. Y spins =              0
(PID.TID 0000.0001) //            Min. Y spins =     1000000000
(PID.TID 0000.0001) //          Total. Y spins =              0
(PID.TID 0000.0001) //            Avg. Y spins =       0.00E+00
(PID.TID 0000.0001) // o Tile number: 000035
(PID.TID 0000.0001) //         No. X exchanges =              0
(PID.TID 0000.0001) //            Max. X spins =              0
(PID.TID 0000.0001) //            Min. X spins =     1000000000
(PID.TID 0000.0001) //          Total. X spins =              0
(PID.TID 0000.0001) //            Avg. X spins =       0.00E+00
(PID.TID 0000.0001) //         No. Y exchanges =              0
(PID.TID 0000.0001) //            Max. Y spins =              0
(PID.TID 0000.0001) //            Min. Y spins =     1000000000
(PID.TID 0000.0001) //          Total. Y spins =              0
(PID.TID 0000.0001) //            Avg. Y spins =       0.00E+00
(PID.TID 0000.0001) // o Tile number: 000036
(PID.TID 0000.0001) //         No. X exchanges =              0
(PID.TID 0000.0001) //            Max. X spins =              0
(PID.TID 0000.0001) //            Min. X spins =     1000000000
(PID.TID 0000.0001) //          Total. X spins =              0
(PID.TID 0000.0001) //            Avg. X spins =       0.00E+00
(PID.TID 0000.0001) //         No. Y exchanges =              0
(PID.TID 0000.0001) //            Max. Y spins =              0
(PID.TID 0000.0001) //            Min. Y spins =     1000000000
(PID.TID 0000.0001) //          Total. Y spins =              0
(PID.TID 0000.0001) //            Avg. Y spins =       0.00E+00
(PID.TID 0000.0001) // o Tile number: 000037
(PID.TID 0000.0001) //         No. X exchanges =              0
(PID.TID 0000.0001) //            Max. X spins =              0
(PID.TID 0000.0001) //            Min. X spins =     1000000000
(PID.TID 0000.0001) //          Total. X spins =              0
(PID.TID 0000.0001) //            Avg. X spins =       0.00E+00
(PID.TID 0000.0001) //         No. Y exchanges =              0
(PID.TID 0000.0001) //            Max. Y spins =              0
(PID.TID 0000.0001) //            Min. Y spins =     1000000000
(PID.TID 0000.0001) //          Total. Y spins =              0
(PID.TID 0000.0001) //            Avg. Y spins =       0.00E+00
(PID.TID 0000.0001) // o Tile number: 000038
(PID.TID 0000.0001) //         No. X exchanges =              0
(PID.TID 0000.0001) //            Max. X spins =              0
(PID.TID 0000.0001) //            Min. X spins =     1000000000
(PID.TID 0000.0001) //          Total. X spins =              0
(PID.TID 0000.0001) //            Avg. X spins =       0.00E+00
(PID.TID 0000.0001) //         No. Y exchanges =              0
(PID.TID 0000.0001) //            Max. Y spins =              0
(PID.TID 0000.0001) //            Min. Y spins =     1000000000
(PID.TID 0000.0001) //          Total. Y spins =              0
(PID.TID 0000.0001) //            Avg. Y spins =       0.00E+00
(PID.TID 0000.0001) // o Tile number: 000039
(PID.TID 0000.0001) //         No. X exchanges =              0
(PID.TID 0000.0001) //            Max. X spins =              0
(PID.TID 0000.0001) //            Min. X spins =     1000000000
(PID.TID 0000.0001) //          Total. X spins =              0
(PID.TID 0000.0001) //            Avg. X spins =       0.00E+00
(PID.TID 0000.0001) //         No. Y exchanges =              0
(PID.TID 0000.0001) //            Max. Y spins =              0
(PID.TID 0000.0001) //            Min. Y spins =     1000000000
(PID.TID 0000.0001) //          Total. Y spins =              0
(PID.TID 0000.0001) //            Avg. Y spins =       0.00E+00
(PID.TID 0000.0001) // o Tile number: 000040
(PID.TID 0000.0001) //         No. X exchanges =              0
(PID.TID 0000.0001) //            Max. X spins =              0
(PID.TID 0000.0001) //            Min. X spins =     1000000000
(PID.TID 0000.0001) //          Total. X spins =              0
(PID.TID 0000.0001) //            Avg. X spins =       0.00E+00
(PID.TID 0000.0001) //         No. Y exchanges =              0
(PID.TID 0000.0001) //            Max. Y spins =              0
(PID.TID 0000.0001) //            Min. Y spins =     1000000000
(PID.TID 0000.0001) //          Total. Y spins =              0
(PID.TID 0000.0001) //            Avg. Y spins =       0.00E+00
(PID.TID 0000.0001) // o Tile number: 000041
(PID.TID 0000.0001) //         No. X exchanges =              0
(PID.TID 0000.0001) //            Max. X spins =              0
(PID.TID 0000.0001) //            Min. X spins =     1000000000
(PID.TID 0000.0001) //          Total. X spins =              0
(PID.TID 0000.0001) //            Avg. X spins =       0.00E+00
(PID.TID 0000.0001) //         No. Y exchanges =              0
(PID.TID 0000.0001) //            Max. Y spins =              0
(PID.TID 0000.0001) //            Min. Y spins =     1000000000
(PID.TID 0000.0001) //          Total. Y spins =              0
(PID.TID 0000.0001) //            Avg. Y spins =       0.00E+00
(PID.TID 0000.0001) // o Tile number: 000042
(PID.TID 0000.0001) //         No. X exchanges =              0
(PID.TID 0000.0001) //            Max. X spins =              0
(PID.TID 0000.0001) //            Min. X spins =     1000000000
(PID.TID 0000.0001) //          Total. X spins =              0
(PID.TID 0000.0001) //            Avg. X spins =       0.00E+00
(PID.TID 0000.0001) //         No. Y exchanges =              0
(PID.TID 0000.0001) //            Max. Y spins =              0
(PID.TID 0000.0001) //            Min. Y spins =     1000000000
(PID.TID 0000.0001) //          Total. Y spins =              0
(PID.TID 0000.0001) //            Avg. Y spins =       0.00E+00
(PID.TID 0000.0001) // o Tile number: 000043
(PID.TID 0000.0001) //         No. X exchanges =              0
(PID.TID 0000.0001) //            Max. X spins =              0
(PID.TID 0000.0001) //            Min. X spins =     1000000000
(PID.TID 0000.0001) //          Total. X spins =              0
(PID.TID 0000.0001) //            Avg. X spins =       0.00E+00
(PID.TID 0000.0001) //         No. Y exchanges =              0
(PID.TID 0000.0001) //            Max. Y spins =              0
(PID.TID 0000.0001) //            Min. Y spins =     1000000000
(PID.TID 0000.0001) //          Total. Y spins =              0
(PID.TID 0000.0001) //            Avg. Y spins =       0.00E+00
(PID.TID 0000.0001) // o Tile number: 000044
(PID.TID 0000.0001) //         No. X exchanges =              0
(PID.TID 0000.0001) //            Max. X spins =              0
(PID.TID 0000.0001) //            Min. X spins =     1000000000
(PID.TID 0000.0001) //          Total. X spins =              0
(PID.TID 0000.0001) //            Avg. X spins =       0.00E+00
(PID.TID 0000.0001) //         No. Y exchanges =              0
(PID.TID 0000.0001) //            Max. Y spins =              0
(PID.TID 0000.0001) //            Min. Y spins =     1000000000
(PID.TID 0000.0001) //          Total. Y spins =              0
(PID.TID 0000.0001) //            Avg. Y spins =       0.00E+00
(PID.TID 0000.0001) // o Tile number: 000045
(PID.TID 0000.0001) //         No. X exchanges =              0
(PID.TID 0000.0001) //            Max. X spins =              0
(PID.TID 0000.0001) //            Min. X spins =     1000000000
(PID.TID 0000.0001) //          Total. X spins =              0
(PID.TID 0000.0001) //            Avg. X spins =       0.00E+00
(PID.TID 0000.0001) //         No. Y exchanges =              0
(PID.TID 0000.0001) //            Max. Y spins =              0
(PID.TID 0000.0001) //            Min. Y spins =     1000000000
(PID.TID 0000.0001) //          Total. Y spins =              0
(PID.TID 0000.0001) //            Avg. Y spins =       0.00E+00
(PID.TID 0000.0001) // o Tile number: 000046
(PID.TID 0000.0001) //         No. X exchanges =              0
(PID.TID 0000.0001) //            Max. X spins =              0
(PID.TID 0000.0001) //            Min. X spins =     1000000000
(PID.TID 0000.0001) //          Total. X spins =              0
(PID.TID 0000.0001) //            Avg. X spins =       0.00E+00
(PID.TID 0000.0001) //         No. Y exchanges =              0
(PID.TID 0000.0001) //            Max. Y spins =              0
(PID.TID 0000.0001) //            Min. Y spins =     1000000000
(PID.TID 0000.0001) //          Total. Y spins =              0
(PID.TID 0000.0001) //            Avg. Y spins =       0.00E+00
(PID.TID 0000.0001) // o Tile number: 000047
(PID.TID 0000.0001) //         No. X exchanges =              0
(PID.TID 0000.0001) //            Max. X spins =              0
(PID.TID 0000.0001) //            Min. X spins =     1000000000
(PID.TID 0000.0001) //          Total. X spins =              0
(PID.TID 0000.0001) //            Avg. X spins =       0.00E+00
(PID.TID 0000.0001) //         No. Y exchanges =              0
(PID.TID 0000.0001) //            Max. Y spins =              0
(PID.TID 0000.0001) //            Min. Y spins =     1000000000
(PID.TID 0000.0001) //          Total. Y spins =              0
(PID.TID 0000.0001) //            Avg. Y spins =       0.00E+00
(PID.TID 0000.0001) // o Tile number: 000048
(PID.TID 0000.0001) //         No. X exchanges =              0
(PID.TID 0000.0001) //            Max. X spins =              0
(PID.TID 0000.0001) //            Min. X spins =     1000000000
(PID.TID 0000.0001) //          Total. X spins =              0
(PID.TID 0000.0001) //            Avg. X spins =       0.00E+00
(PID.TID 0000.0001) //         No. Y exchanges =              0
(PID.TID 0000.0001) //            Max. Y spins =              0
(PID.TID 0000.0001) //            Min. Y spins =     1000000000
(PID.TID 0000.0001) //          Total. Y spins =              0
(PID.TID 0000.0001) //            Avg. Y spins =       0.00E+00
(PID.TID 0000.0001) // o Tile number: 000049
(PID.TID 0000.0001) //         No. X exchanges =              0
(PID.TID 0000.0001) //            Max. X spins =              0
(PID.TID 0000.0001) //            Min. X spins =     1000000000
(PID.TID 0000.0001) //          Total. X spins =              0
(PID.TID 0000.0001) //            Avg. X spins =       0.00E+00
(PID.TID 0000.0001) //         No. Y exchanges =              0
(PID.TID 0000.0001) //            Max. Y spins =              0
(PID.TID 0000.0001) //            Min. Y spins =     1000000000
(PID.TID 0000.0001) //          Total. Y spins =              0
(PID.TID 0000.0001) //            Avg. Y spins =       0.00E+00
(PID.TID 0000.0001) // o Tile number: 000050
(PID.TID 0000.0001) //         No. X exchanges =              0
(PID.TID 0000.0001) //            Max. X spins =              0
(PID.TID 0000.0001) //            Min. X spins =     1000000000
(PID.TID 0000.0001) //          Total. X spins =              0
(PID.TID 0000.0001) //            Avg. X spins =       0.00E+00
(PID.TID 0000.0001) //         No. Y exchanges =              0
(PID.TID 0000.0001) //            Max. Y spins =              0
(PID.TID 0000.0001) //            Min. Y spins =     1000000000
(PID.TID 0000.0001) //          Total. Y spins =              0
(PID.TID 0000.0001) //            Avg. Y spins =       0.00E+00
(PID.TID 0000.0001) // o Tile number: 000051
(PID.TID 0000.0001) //         No. X exchanges =              0
(PID.TID 0000.0001) //            Max. X spins =              0
(PID.TID 0000.0001) //            Min. X spins =     1000000000
(PID.TID 0000.0001) //          Total. X spins =              0
(PID.TID 0000.0001) //            Avg. X spins =       0.00E+00
(PID.TID 0000.0001) //         No. Y exchanges =              0
(PID.TID 0000.0001) //            Max. Y spins =              0
(PID.TID 0000.0001) //            Min. Y spins =     1000000000
(PID.TID 0000.0001) //          Total. Y spins =              0
(PID.TID 0000.0001) //            Avg. Y spins =       0.00E+00
(PID.TID 0000.0001) // o Tile number: 000052
(PID.TID 0000.0001) //         No. X exchanges =              0
(PID.TID 0000.0001) //            Max. X spins =              0
(PID.TID 0000.0001) //            Min. X spins =     1000000000
(PID.TID 0000.0001) //          Total. X spins =              0
(PID.TID 0000.0001) //            Avg. X spins =       0.00E+00
(PID.TID 0000.0001) //         No. Y exchanges =              0
(PID.TID 0000.0001) //            Max. Y spins =              0
(PID.TID 0000.0001) //            Min. Y spins =     1000000000
(PID.TID 0000.0001) //          Total. Y spins =              0
(PID.TID 0000.0001) //            Avg. Y spins =       0.00E+00
(PID.TID 0000.0001) // o Tile number: 000053
(PID.TID 0000.0001) //         No. X exchanges =              0
(PID.TID 0000.0001) //            Max. X spins =              0
(PID.TID 0000.0001) //            Min. X spins =     1000000000
(PID.TID 0000.0001) //          Total. X spins =              0
(PID.TID 0000.0001) //            Avg. X spins =       0.00E+00
(PID.TID 0000.0001) //         No. Y exchanges =              0
(PID.TID 0000.0001) //            Max. Y spins =              0
(PID.TID 0000.0001) //            Min. Y spins =     1000000000
(PID.TID 0000.0001) //          Total. Y spins =              0
(PID.TID 0000.0001) //            Avg. Y spins =       0.00E+00
(PID.TID 0000.0001) // o Tile number: 000054
(PID.TID 0000.0001) //         No. X exchanges =              0
(PID.TID 0000.0001) //            Max. X spins =              0
(PID.TID 0000.0001) //            Min. X spins =     1000000000
(PID.TID 0000.0001) //          Total. X spins =              0
(PID.TID 0000.0001) //            Avg. X spins =       0.00E+00
(PID.TID 0000.0001) //         No. Y exchanges =              0
(PID.TID 0000.0001) //            Max. Y spins =              0
(PID.TID 0000.0001) //            Min. Y spins =     1000000000
(PID.TID 0000.0001) //          Total. Y spins =              0
(PID.TID 0000.0001) //            Avg. Y spins =       0.00E+00
(PID.TID 0000.0001) // o Tile number: 000055
(PID.TID 0000.0001) //         No. X exchanges =              0
(PID.TID 0000.0001) //            Max. X spins =              0
(PID.TID 0000.0001) //            Min. X spins =     1000000000
(PID.TID 0000.0001) //          Total. X spins =              0
(PID.TID 0000.0001) //            Avg. X spins =       0.00E+00
(PID.TID 0000.0001) //         No. Y exchanges =              0
(PID.TID 0000.0001) //            Max. Y spins =              0
(PID.TID 0000.0001) //            Min. Y spins =     1000000000
(PID.TID 0000.0001) //          Total. Y spins =              0
(PID.TID 0000.0001) //            Avg. Y spins =       0.00E+00
(PID.TID 0000.0001) // o Tile number: 000056
(PID.TID 0000.0001) //         No. X exchanges =              0
(PID.TID 0000.0001) //            Max. X spins =              0
(PID.TID 0000.0001) //            Min. X spins =     1000000000
(PID.TID 0000.0001) //          Total. X spins =              0
(PID.TID 0000.0001) //            Avg. X spins =       0.00E+00
(PID.TID 0000.0001) //         No. Y exchanges =              0
(PID.TID 0000.0001) //            Max. Y spins =              0
(PID.TID 0000.0001) //            Min. Y spins =     1000000000
(PID.TID 0000.0001) //          Total. Y spins =              0
(PID.TID 0000.0001) //            Avg. Y spins =       0.00E+00
(PID.TID 0000.0001) // o Tile number: 000057
(PID.TID 0000.0001) //         No. X exchanges =              0
(PID.TID 0000.0001) //            Max. X spins =              0
(PID.TID 0000.0001) //            Min. X spins =     1000000000
(PID.TID 0000.0001) //          Total. X spins =              0
(PID.TID 0000.0001) //            Avg. X spins =       0.00E+00
(PID.TID 0000.0001) //         No. Y exchanges =              0
(PID.TID 0000.0001) //            Max. Y spins =              0
(PID.TID 0000.0001) //            Min. Y spins =     1000000000
(PID.TID 0000.0001) //          Total. Y spins =              0
(PID.TID 0000.0001) //            Avg. Y spins =       0.00E+00
(PID.TID 0000.0001) // o Tile number: 000058
(PID.TID 0000.0001) //         No. X exchanges =              0
(PID.TID 0000.0001) //            Max. X spins =              0
(PID.TID 0000.0001) //            Min. X spins =     1000000000
(PID.TID 0000.0001) //          Total. X spins =              0
(PID.TID 0000.0001) //            Avg. X spins =       0.00E+00
(PID.TID 0000.0001) //         No. Y exchanges =              0
(PID.TID 0000.0001) //            Max. Y spins =              0
(PID.TID 0000.0001) //            Min. Y spins =     1000000000
(PID.TID 0000.0001) //          Total. Y spins =              0
(PID.TID 0000.0001) //            Avg. Y spins =       0.00E+00
(PID.TID 0000.0001) // o Tile number: 000059
(PID.TID 0000.0001) //         No. X exchanges =              0
(PID.TID 0000.0001) //            Max. X spins =              0
(PID.TID 0000.0001) //            Min. X spins =     1000000000
(PID.TID 0000.0001) //          Total. X spins =              0
(PID.TID 0000.0001) //            Avg. X spins =       0.00E+00
(PID.TID 0000.0001) //         No. Y exchanges =              0
(PID.TID 0000.0001) //            Max. Y spins =              0
(PID.TID 0000.0001) //            Min. Y spins =     1000000000
(PID.TID 0000.0001) //          Total. Y spins =              0
(PID.TID 0000.0001) //            Avg. Y spins =       0.00E+00
(PID.TID 0000.0001) // o Tile number: 000060
(PID.TID 0000.0001) //         No. X exchanges =              0
(PID.TID 0000.0001) //            Max. X spins =              0
(PID.TID 0000.0001) //            Min. X spins =     1000000000
(PID.TID 0000.0001) //          Total. X spins =              0
(PID.TID 0000.0001) //            Avg. X spins =       0.00E+00
(PID.TID 0000.0001) //         No. Y exchanges =              0
(PID.TID 0000.0001) //            Max. Y spins =              0
(PID.TID 0000.0001) //            Min. Y spins =     1000000000
(PID.TID 0000.0001) //          Total. Y spins =              0
(PID.TID 0000.0001) //            Avg. Y spins =       0.00E+00
(PID.TID 0000.0001) // o Tile number: 000061
(PID.TID 0000.0001) //         No. X exchanges =              0
(PID.TID 0000.0001) //            Max. X spins =              0
(PID.TID 0000.0001) //            Min. X spins =     1000000000
(PID.TID 0000.0001) //          Total. X spins =              0
(PID.TID 0000.0001) //            Avg. X spins =       0.00E+00
(PID.TID 0000.0001) //         No. Y exchanges =              0
(PID.TID 0000.0001) //            Max. Y spins =              0
(PID.TID 0000.0001) //            Min. Y spins =     1000000000
(PID.TID 0000.0001) //          Total. Y spins =              0
(PID.TID 0000.0001) //            Avg. Y spins =       0.00E+00
(PID.TID 0000.0001) // o Tile number: 000062
(PID.TID 0000.0001) //         No. X exchanges =              0
(PID.TID 0000.0001) //            Max. X spins =              0
(PID.TID 0000.0001) //            Min. X spins =     1000000000
(PID.TID 0000.0001) //          Total. X spins =              0
(PID.TID 0000.0001) //            Avg. X spins =       0.00E+00
(PID.TID 0000.0001) //         No. Y exchanges =              0
(PID.TID 0000.0001) //            Max. Y spins =              0
(PID.TID 0000.0001) //            Min. Y spins =     1000000000
(PID.TID 0000.0001) //          Total. Y spins =              0
(PID.TID 0000.0001) //            Avg. Y spins =       0.00E+00
(PID.TID 0000.0001) // o Tile number: 000063
(PID.TID 0000.0001) //         No. X exchanges =              0
(PID.TID 0000.0001) //            Max. X spins =              0
(PID.TID 0000.0001) //            Min. X spins =     1000000000
(PID.TID 0000.0001) //          Total. X spins =              0
(PID.TID 0000.0001) //            Avg. X spins =       0.00E+00
(PID.TID 0000.0001) //         No. Y exchanges =              0
(PID.TID 0000.0001) //            Max. Y spins =              0
(PID.TID 0000.0001) //            Min. Y spins =     1000000000
(PID.TID 0000.0001) //          Total. Y spins =              0
(PID.TID 0000.0001) //            Avg. Y spins =       0.00E+00
(PID.TID 0000.0001) // o Tile number: 000064
(PID.TID 0000.0001) //         No. X exchanges =              0
(PID.TID 0000.0001) //            Max. X spins =              0
(PID.TID 0000.0001) //            Min. X spins =     1000000000
(PID.TID 0000.0001) //          Total. X spins =              0
(PID.TID 0000.0001) //            Avg. X spins =       0.00E+00
(PID.TID 0000.0001) //         No. Y exchanges =              0
(PID.TID 0000.0001) //            Max. Y spins =              0
(PID.TID 0000.0001) //            Min. Y spins =     1000000000
(PID.TID 0000.0001) //          Total. Y spins =              0
(PID.TID 0000.0001) //            Avg. Y spins =       0.00E+00
(PID.TID 0000.0001) // o Tile number: 000065
(PID.TID 0000.0001) //         No. X exchanges =              0
(PID.TID 0000.0001) //            Max. X spins =              0
(PID.TID 0000.0001) //            Min. X spins =     1000000000
(PID.TID 0000.0001) //          Total. X spins =              0
(PID.TID 0000.0001) //            Avg. X spins =       0.00E+00
(PID.TID 0000.0001) //         No. Y exchanges =              0
(PID.TID 0000.0001) //            Max. Y spins =              0
(PID.TID 0000.0001) //            Min. Y spins =     1000000000
(PID.TID 0000.0001) //          Total. Y spins =              0
(PID.TID 0000.0001) //            Avg. Y spins =       0.00E+00
(PID.TID 0000.0001) // o Tile number: 000066
(PID.TID 0000.0001) //         No. X exchanges =              0
(PID.TID 0000.0001) //            Max. X spins =              0
(PID.TID 0000.0001) //            Min. X spins =     1000000000
(PID.TID 0000.0001) //          Total. X spins =              0
(PID.TID 0000.0001) //            Avg. X spins =       0.00E+00
(PID.TID 0000.0001) //         No. Y exchanges =              0
(PID.TID 0000.0001) //            Max. Y spins =              0
(PID.TID 0000.0001) //            Min. Y spins =     1000000000
(PID.TID 0000.0001) //          Total. Y spins =              0
(PID.TID 0000.0001) //            Avg. Y spins =       0.00E+00
(PID.TID 0000.0001) // o Tile number: 000067
(PID.TID 0000.0001) //         No. X exchanges =              0
(PID.TID 0000.0001) //            Max. X spins =              0
(PID.TID 0000.0001) //            Min. X spins =     1000000000
(PID.TID 0000.0001) //          Total. X spins =              0
(PID.TID 0000.0001) //            Avg. X spins =       0.00E+00
(PID.TID 0000.0001) //         No. Y exchanges =              0
(PID.TID 0000.0001) //            Max. Y spins =              0
(PID.TID 0000.0001) //            Min. Y spins =     1000000000
(PID.TID 0000.0001) //          Total. Y spins =              0
(PID.TID 0000.0001) //            Avg. Y spins =       0.00E+00
(PID.TID 0000.0001) // o Tile number: 000068
(PID.TID 0000.0001) //         No. X exchanges =              0
(PID.TID 0000.0001) //            Max. X spins =              0
(PID.TID 0000.0001) //            Min. X spins =     1000000000
(PID.TID 0000.0001) //          Total. X spins =              0
(PID.TID 0000.0001) //            Avg. X spins =       0.00E+00
(PID.TID 0000.0001) //         No. Y exchanges =              0
(PID.TID 0000.0001) //            Max. Y spins =              0
(PID.TID 0000.0001) //            Min. Y spins =     1000000000
(PID.TID 0000.0001) //          Total. Y spins =              0
(PID.TID 0000.0001) //            Avg. Y spins =       0.00E+00
(PID.TID 0000.0001) // o Tile number: 000069
(PID.TID 0000.0001) //         No. X exchanges =              0
(PID.TID 0000.0001) //            Max. X spins =              0
(PID.TID 0000.0001) //            Min. X spins =     1000000000
(PID.TID 0000.0001) //          Total. X spins =              0
(PID.TID 0000.0001) //            Avg. X spins =       0.00E+00
(PID.TID 0000.0001) //         No. Y exchanges =              0
(PID.TID 0000.0001) //            Max. Y spins =              0
(PID.TID 0000.0001) //            Min. Y spins =     1000000000
(PID.TID 0000.0001) //          Total. Y spins =              0
(PID.TID 0000.0001) //            Avg. Y spins =       0.00E+00
(PID.TID 0000.0001) // o Tile number: 000070
(PID.TID 0000.0001) //         No. X exchanges =              0
(PID.TID 0000.0001) //            Max. X spins =              0
(PID.TID 0000.0001) //            Min. X spins =     1000000000
(PID.TID 0000.0001) //          Total. X spins =              0
(PID.TID 0000.0001) //            Avg. X spins =       0.00E+00
(PID.TID 0000.0001) //         No. Y exchanges =              0
(PID.TID 0000.0001) //            Max. Y spins =              0
(PID.TID 0000.0001) //            Min. Y spins =     1000000000
(PID.TID 0000.0001) //          Total. Y spins =              0
(PID.TID 0000.0001) //            Avg. Y spins =       0.00E+00
(PID.TID 0000.0001) // o Tile number: 000071
(PID.TID 0000.0001) //         No. X exchanges =              0
(PID.TID 0000.0001) //            Max. X spins =              0
(PID.TID 0000.0001) //            Min. X spins =     1000000000
(PID.TID 0000.0001) //          Total. X spins =              0
(PID.TID 0000.0001) //            Avg. X spins =       0.00E+00
(PID.TID 0000.0001) //         No. Y exchanges =              0
(PID.TID 0000.0001) //            Max. Y spins =              0
(PID.TID 0000.0001) //            Min. Y spins =     1000000000
(PID.TID 0000.0001) //          Total. Y spins =              0
(PID.TID 0000.0001) //            Avg. Y spins =       0.00E+00
(PID.TID 0000.0001) // o Tile number: 000072
(PID.TID 0000.0001) //         No. X exchanges =              0
(PID.TID 0000.0001) //            Max. X spins =              0
(PID.TID 0000.0001) //            Min. X spins =     1000000000
(PID.TID 0000.0001) //          Total. X spins =              0
(PID.TID 0000.0001) //            Avg. X spins =       0.00E+00
(PID.TID 0000.0001) //         No. Y exchanges =              0
(PID.TID 0000.0001) //            Max. Y spins =              0
(PID.TID 0000.0001) //            Min. Y spins =     1000000000
(PID.TID 0000.0001) //          Total. Y spins =              0
(PID.TID 0000.0001) //            Avg. Y spins =       0.00E+00
(PID.TID 0000.0001) // o Tile number: 000073
(PID.TID 0000.0001) //         No. X exchanges =              0
(PID.TID 0000.0001) //            Max. X spins =              0
(PID.TID 0000.0001) //            Min. X spins =     1000000000
(PID.TID 0000.0001) //          Total. X spins =              0
(PID.TID 0000.0001) //            Avg. X spins =       0.00E+00
(PID.TID 0000.0001) //         No. Y exchanges =              0
(PID.TID 0000.0001) //            Max. Y spins =              0
(PID.TID 0000.0001) //            Min. Y spins =     1000000000
(PID.TID 0000.0001) //          Total. Y spins =              0
(PID.TID 0000.0001) //            Avg. Y spins =       0.00E+00
(PID.TID 0000.0001) // o Tile number: 000074
(PID.TID 0000.0001) //         No. X exchanges =              0
(PID.TID 0000.0001) //            Max. X spins =              0
(PID.TID 0000.0001) //            Min. X spins =     1000000000
(PID.TID 0000.0001) //          Total. X spins =              0
(PID.TID 0000.0001) //            Avg. X spins =       0.00E+00
(PID.TID 0000.0001) //         No. Y exchanges =              0
(PID.TID 0000.0001) //            Max. Y spins =              0
(PID.TID 0000.0001) //            Min. Y spins =     1000000000
(PID.TID 0000.0001) //          Total. Y spins =              0
(PID.TID 0000.0001) //            Avg. Y spins =       0.00E+00
(PID.TID 0000.0001) // o Tile number: 000075
(PID.TID 0000.0001) //         No. X exchanges =              0
(PID.TID 0000.0001) //            Max. X spins =              0
(PID.TID 0000.0001) //            Min. X spins =     1000000000
(PID.TID 0000.0001) //          Total. X spins =              0
(PID.TID 0000.0001) //            Avg. X spins =       0.00E+00
(PID.TID 0000.0001) //         No. Y exchanges =              0
(PID.TID 0000.0001) //            Max. Y spins =              0
(PID.TID 0000.0001) //            Min. Y spins =     1000000000
(PID.TID 0000.0001) //          Total. Y spins =              0
(PID.TID 0000.0001) //            Avg. Y spins =       0.00E+00
(PID.TID 0000.0001) // o Tile number: 000076
(PID.TID 0000.0001) //         No. X exchanges =              0
(PID.TID 0000.0001) //            Max. X spins =              0
(PID.TID 0000.0001) //            Min. X spins =     1000000000
(PID.TID 0000.0001) //          Total. X spins =              0
(PID.TID 0000.0001) //            Avg. X spins =       0.00E+00
(PID.TID 0000.0001) //         No. Y exchanges =              0
(PID.TID 0000.0001) //            Max. Y spins =              0
(PID.TID 0000.0001) //            Min. Y spins =     1000000000
(PID.TID 0000.0001) //          Total. Y spins =              0
(PID.TID 0000.0001) //            Avg. Y spins =       0.00E+00
(PID.TID 0000.0001) // o Tile number: 000077
(PID.TID 0000.0001) //         No. X exchanges =              0
(PID.TID 0000.0001) //            Max. X spins =              0
(PID.TID 0000.0001) //            Min. X spins =     1000000000
(PID.TID 0000.0001) //          Total. X spins =              0
(PID.TID 0000.0001) //            Avg. X spins =       0.00E+00
(PID.TID 0000.0001) //         No. Y exchanges =              0
(PID.TID 0000.0001) //            Max. Y spins =              0
(PID.TID 0000.0001) //            Min. Y spins =     1000000000
(PID.TID 0000.0001) //          Total. Y spins =              0
(PID.TID 0000.0001) //            Avg. Y spins =       0.00E+00
(PID.TID 0000.0001) // o Tile number: 000078
(PID.TID 0000.0001) //         No. X exchanges =              0
(PID.TID 0000.0001) //            Max. X spins =              0
(PID.TID 0000.0001) //            Min. X spins =     1000000000
(PID.TID 0000.0001) //          Total. X spins =              0
(PID.TID 0000.0001) //            Avg. X spins =       0.00E+00
(PID.TID 0000.0001) //         No. Y exchanges =              0
(PID.TID 0000.0001) //            Max. Y spins =              0
(PID.TID 0000.0001) //            Min. Y spins =     1000000000
(PID.TID 0000.0001) //          Total. Y spins =              0
(PID.TID 0000.0001) //            Avg. Y spins =       0.00E+00
(PID.TID 0000.0001) // o Tile number: 000079
(PID.TID 0000.0001) //         No. X exchanges =              0
(PID.TID 0000.0001) //            Max. X spins =              0
(PID.TID 0000.0001) //            Min. X spins =     1000000000
(PID.TID 0000.0001) //          Total. X spins =              0
(PID.TID 0000.0001) //            Avg. X spins =       0.00E+00
(PID.TID 0000.0001) //         No. Y exchanges =              0
(PID.TID 0000.0001) //            Max. Y spins =              0
(PID.TID 0000.0001) //            Min. Y spins =     1000000000
(PID.TID 0000.0001) //          Total. Y spins =              0
(PID.TID 0000.0001) //            Avg. Y spins =       0.00E+00
(PID.TID 0000.0001) // o Tile number: 000080
(PID.TID 0000.0001) //         No. X exchanges =              0
(PID.TID 0000.0001) //            Max. X spins =              0
(PID.TID 0000.0001) //            Min. X spins =     1000000000
(PID.TID 0000.0001) //          Total. X spins =              0
(PID.TID 0000.0001) //            Avg. X spins =       0.00E+00
(PID.TID 0000.0001) //         No. Y exchanges =              0
(PID.TID 0000.0001) //            Max. Y spins =              0
(PID.TID 0000.0001) //            Min. Y spins =     1000000000
(PID.TID 0000.0001) //          Total. Y spins =              0
(PID.TID 0000.0001) //            Avg. Y spins =       0.00E+00
(PID.TID 0000.0001) // o Tile number: 000081
(PID.TID 0000.0001) //         No. X exchanges =              0
(PID.TID 0000.0001) //            Max. X spins =              0
(PID.TID 0000.0001) //            Min. X spins =     1000000000
(PID.TID 0000.0001) //          Total. X spins =              0
(PID.TID 0000.0001) //            Avg. X spins =       0.00E+00
(PID.TID 0000.0001) //         No. Y exchanges =              0
(PID.TID 0000.0001) //            Max. Y spins =              0
(PID.TID 0000.0001) //            Min. Y spins =     1000000000
(PID.TID 0000.0001) //          Total. Y spins =              0
(PID.TID 0000.0001) //            Avg. Y spins =       0.00E+00
(PID.TID 0000.0001) // o Tile number: 000082
(PID.TID 0000.0001) //         No. X exchanges =              0
(PID.TID 0000.0001) //            Max. X spins =              0
(PID.TID 0000.0001) //            Min. X spins =     1000000000
(PID.TID 0000.0001) //          Total. X spins =              0
(PID.TID 0000.0001) //            Avg. X spins =       0.00E+00
(PID.TID 0000.0001) //         No. Y exchanges =              0
(PID.TID 0000.0001) //            Max. Y spins =              0
(PID.TID 0000.0001) //            Min. Y spins =     1000000000
(PID.TID 0000.0001) //          Total. Y spins =              0
(PID.TID 0000.0001) //            Avg. Y spins =       0.00E+00
(PID.TID 0000.0001) // o Tile number: 000083
(PID.TID 0000.0001) //         No. X exchanges =              0
(PID.TID 0000.0001) //            Max. X spins =              0
(PID.TID 0000.0001) //            Min. X spins =     1000000000
(PID.TID 0000.0001) //          Total. X spins =              0
(PID.TID 0000.0001) //            Avg. X spins =       0.00E+00
(PID.TID 0000.0001) //         No. Y exchanges =              0
(PID.TID 0000.0001) //            Max. Y spins =              0
(PID.TID 0000.0001) //            Min. Y spins =     1000000000
(PID.TID 0000.0001) //          Total. Y spins =              0
(PID.TID 0000.0001) //            Avg. Y spins =       0.00E+00
(PID.TID 0000.0001) // o Tile number: 000084
(PID.TID 0000.0001) //         No. X exchanges =              0
(PID.TID 0000.0001) //            Max. X spins =              0
(PID.TID 0000.0001) //            Min. X spins =     1000000000
(PID.TID 0000.0001) //          Total. X spins =              0
(PID.TID 0000.0001) //            Avg. X spins =       0.00E+00
(PID.TID 0000.0001) //         No. Y exchanges =              0
(PID.TID 0000.0001) //            Max. Y spins =              0
(PID.TID 0000.0001) //            Min. Y spins =     1000000000
(PID.TID 0000.0001) //          Total. Y spins =              0
(PID.TID 0000.0001) //            Avg. Y spins =       0.00E+00
(PID.TID 0000.0001) // o Tile number: 000085
(PID.TID 0000.0001) //         No. X exchanges =              0
(PID.TID 0000.0001) //            Max. X spins =              0
(PID.TID 0000.0001) //            Min. X spins =     1000000000
(PID.TID 0000.0001) //          Total. X spins =              0
(PID.TID 0000.0001) //            Avg. X spins =       0.00E+00
(PID.TID 0000.0001) //         No. Y exchanges =              0
(PID.TID 0000.0001) //            Max. Y spins =              0
(PID.TID 0000.0001) //            Min. Y spins =     1000000000
(PID.TID 0000.0001) //          Total. Y spins =              0
(PID.TID 0000.0001) //            Avg. Y spins =       0.00E+00
(PID.TID 0000.0001) // o Tile number: 000086
(PID.TID 0000.0001) //         No. X exchanges =              0
(PID.TID 0000.0001) //            Max. X spins =              0
(PID.TID 0000.0001) //            Min. X spins =     1000000000
(PID.TID 0000.0001) //          Total. X spins =              0
(PID.TID 0000.0001) //            Avg. X spins =       0.00E+00
(PID.TID 0000.0001) //         No. Y exchanges =              0
(PID.TID 0000.0001) //            Max. Y spins =              0
(PID.TID 0000.0001) //            Min. Y spins =     1000000000
(PID.TID 0000.0001) //          Total. Y spins =              0
(PID.TID 0000.0001) //            Avg. Y spins =       0.00E+00
(PID.TID 0000.0001) // o Tile number: 000087
(PID.TID 0000.0001) //         No. X exchanges =              0
(PID.TID 0000.0001) //            Max. X spins =              0
(PID.TID 0000.0001) //            Min. X spins =     1000000000
(PID.TID 0000.0001) //          Total. X spins =              0
(PID.TID 0000.0001) //            Avg. X spins =       0.00E+00
(PID.TID 0000.0001) //         No. Y exchanges =              0
(PID.TID 0000.0001) //            Max. Y spins =              0
(PID.TID 0000.0001) //            Min. Y spins =     1000000000
(PID.TID 0000.0001) //          Total. Y spins =              0
(PID.TID 0000.0001) //            Avg. Y spins =       0.00E+00
(PID.TID 0000.0001) // o Tile number: 000088
(PID.TID 0000.0001) //         No. X exchanges =              0
(PID.TID 0000.0001) //            Max. X spins =              0
(PID.TID 0000.0001) //            Min. X spins =     1000000000
(PID.TID 0000.0001) //          Total. X spins =              0
(PID.TID 0000.0001) //            Avg. X spins =       0.00E+00
(PID.TID 0000.0001) //         No. Y exchanges =              0
(PID.TID 0000.0001) //            Max. Y spins =              0
(PID.TID 0000.0001) //            Min. Y spins =     1000000000
(PID.TID 0000.0001) //          Total. Y spins =              0
(PID.TID 0000.0001) //            Avg. Y spins =       0.00E+00
(PID.TID 0000.0001) // o Tile number: 000089
(PID.TID 0000.0001) //         No. X exchanges =              0
(PID.TID 0000.0001) //            Max. X spins =              0
(PID.TID 0000.0001) //            Min. X spins =     1000000000
(PID.TID 0000.0001) //          Total. X spins =              0
(PID.TID 0000.0001) //            Avg. X spins =       0.00E+00
(PID.TID 0000.0001) //         No. Y exchanges =              0
(PID.TID 0000.0001) //            Max. Y spins =              0
(PID.TID 0000.0001) //            Min. Y spins =     1000000000
(PID.TID 0000.0001) //          Total. Y spins =              0
(PID.TID 0000.0001) //            Avg. Y spins =       0.00E+00
(PID.TID 0000.0001) // o Tile number: 000090
(PID.TID 0000.0001) //         No. X exchanges =              0
(PID.TID 0000.0001) //            Max. X spins =              0
(PID.TID 0000.0001) //            Min. X spins =     1000000000
(PID.TID 0000.0001) //          Total. X spins =              0
(PID.TID 0000.0001) //            Avg. X spins =       0.00E+00
(PID.TID 0000.0001) //         No. Y exchanges =              0
(PID.TID 0000.0001) //            Max. Y spins =              0
(PID.TID 0000.0001) //            Min. Y spins =     1000000000
(PID.TID 0000.0001) //          Total. Y spins =              0
(PID.TID 0000.0001) //            Avg. Y spins =       0.00E+00
(PID.TID 0000.0001) // o Tile number: 000091
(PID.TID 0000.0001) //         No. X exchanges =              0
(PID.TID 0000.0001) //            Max. X spins =              0
(PID.TID 0000.0001) //            Min. X spins =     1000000000
(PID.TID 0000.0001) //          Total. X spins =              0
(PID.TID 0000.0001) //            Avg. X spins =       0.00E+00
(PID.TID 0000.0001) //         No. Y exchanges =              0
(PID.TID 0000.0001) //            Max. Y spins =              0
(PID.TID 0000.0001) //            Min. Y spins =     1000000000
(PID.TID 0000.0001) //          Total. Y spins =              0
(PID.TID 0000.0001) //            Avg. Y spins =       0.00E+00
(PID.TID 0000.0001) // o Tile number: 000092
(PID.TID 0000.0001) //         No. X exchanges =              0
(PID.TID 0000.0001) //            Max. X spins =              0
(PID.TID 0000.0001) //            Min. X spins =     1000000000
(PID.TID 0000.0001) //          Total. X spins =              0
(PID.TID 0000.0001) //            Avg. X spins =       0.00E+00
(PID.TID 0000.0001) //         No. Y exchanges =              0
(PID.TID 0000.0001) //            Max. Y spins =              0
(PID.TID 0000.0001) //            Min. Y spins =     1000000000
(PID.TID 0000.0001) //          Total. Y spins =              0
(PID.TID 0000.0001) //            Avg. Y spins =       0.00E+00
(PID.TID 0000.0001) // o Tile number: 000093
(PID.TID 0000.0001) //         No. X exchanges =              0
(PID.TID 0000.0001) //            Max. X spins =              0
(PID.TID 0000.0001) //            Min. X spins =     1000000000
(PID.TID 0000.0001) //          Total. X spins =              0
(PID.TID 0000.0001) //            Avg. X spins =       0.00E+00
(PID.TID 0000.0001) //         No. Y exchanges =              0
(PID.TID 0000.0001) //            Max. Y spins =              0
(PID.TID 0000.0001) //            Min. Y spins =     1000000000
(PID.TID 0000.0001) //          Total. Y spins =              0
(PID.TID 0000.0001) //            Avg. Y spins =       0.00E+00
(PID.TID 0000.0001) // o Tile number: 000094
(PID.TID 0000.0001) //         No. X exchanges =              0
(PID.TID 0000.0001) //            Max. X spins =              0
(PID.TID 0000.0001) //            Min. X spins =     1000000000
(PID.TID 0000.0001) //          Total. X spins =              0
(PID.TID 0000.0001) //            Avg. X spins =       0.00E+00
(PID.TID 0000.0001) //         No. Y exchanges =              0
(PID.TID 0000.0001) //            Max. Y spins =              0
(PID.TID 0000.0001) //            Min. Y spins =     1000000000
(PID.TID 0000.0001) //          Total. Y spins =              0
(PID.TID 0000.0001) //            Avg. Y spins =       0.00E+00
(PID.TID 0000.0001) // o Tile number: 000095
(PID.TID 0000.0001) //         No. X exchanges =              0
(PID.TID 0000.0001) //            Max. X spins =              0
(PID.TID 0000.0001) //            Min. X spins =     1000000000
(PID.TID 0000.0001) //          Total. X spins =              0
(PID.TID 0000.0001) //            Avg. X spins =       0.00E+00
(PID.TID 0000.0001) //         No. Y exchanges =              0
(PID.TID 0000.0001) //            Max. Y spins =              0
(PID.TID 0000.0001) //            Min. Y spins =     1000000000
(PID.TID 0000.0001) //          Total. Y spins =              0
(PID.TID 0000.0001) //            Avg. Y spins =       0.00E+00
(PID.TID 0000.0001) // o Tile number: 000096
(PID.TID 0000.0001) //         No. X exchanges =              0
(PID.TID 0000.0001) //            Max. X spins =              0
(PID.TID 0000.0001) //            Min. X spins =     1000000000
(PID.TID 0000.0001) //          Total. X spins =              0
(PID.TID 0000.0001) //            Avg. X spins =       0.00E+00
(PID.TID 0000.0001) //         No. Y exchanges =              0
(PID.TID 0000.0001) //            Max. Y spins =              0
(PID.TID 0000.0001) //            Min. Y spins =     1000000000
(PID.TID 0000.0001) //          Total. Y spins =              0
(PID.TID 0000.0001) //            Avg. Y spins =       0.00E+00
(PID.TID 0000.0001) // o Tile number: 000097
(PID.TID 0000.0001) //         No. X exchanges =              0
(PID.TID 0000.0001) //            Max. X spins =              0
(PID.TID 0000.0001) //            Min. X spins =     1000000000
(PID.TID 0000.0001) //          Total. X spins =              0
(PID.TID 0000.0001) //            Avg. X spins =       0.00E+00
(PID.TID 0000.0001) //         No. Y exchanges =              0
(PID.TID 0000.0001) //            Max. Y spins =              0
(PID.TID 0000.0001) //            Min. Y spins =     1000000000
(PID.TID 0000.0001) //          Total. Y spins =              0
(PID.TID 0000.0001) //            Avg. Y spins =       0.00E+00
(PID.TID 0000.0001) // o Tile number: 000098
(PID.TID 0000.0001) //         No. X exchanges =              0
(PID.TID 0000.0001) //            Max. X spins =              0
(PID.TID 0000.0001) //            Min. X spins =     1000000000
(PID.TID 0000.0001) //          Total. X spins =              0
(PID.TID 0000.0001) //            Avg. X spins =       0.00E+00
(PID.TID 0000.0001) //         No. Y exchanges =              0
(PID.TID 0000.0001) //            Max. Y spins =              0
(PID.TID 0000.0001) //            Min. Y spins =     1000000000
(PID.TID 0000.0001) //          Total. Y spins =              0
(PID.TID 0000.0001) //            Avg. Y spins =       0.00E+00
(PID.TID 0000.0001) // o Tile number: 000099
(PID.TID 0000.0001) //         No. X exchanges =              0
(PID.TID 0000.0001) //            Max. X spins =              0
(PID.TID 0000.0001) //            Min. X spins =     1000000000
(PID.TID 0000.0001) //          Total. X spins =              0
(PID.TID 0000.0001) //            Avg. X spins =       0.00E+00
(PID.TID 0000.0001) //         No. Y exchanges =              0
(PID.TID 0000.0001) //            Max. Y spins =              0
(PID.TID 0000.0001) //            Min. Y spins =     1000000000
(PID.TID 0000.0001) //          Total. Y spins =              0
(PID.TID 0000.0001) //            Avg. Y spins =       0.00E+00
(PID.TID 0000.0001) // o Tile number: 000100
(PID.TID 0000.0001) //         No. X exchanges =              0
(PID.TID 0000.0001) //            Max. X spins =              0
(PID.TID 0000.0001) //            Min. X spins =     1000000000
(PID.TID 0000.0001) //          Total. X spins =              0
(PID.TID 0000.0001) //            Avg. X spins =       0.00E+00
(PID.TID 0000.0001) //         No. Y exchanges =              0
(PID.TID 0000.0001) //            Max. Y spins =              0
(PID.TID 0000.0001) //            Min. Y spins =     1000000000
(PID.TID 0000.0001) //          Total. Y spins =              0
(PID.TID 0000.0001) //            Avg. Y spins =       0.00E+00
(PID.TID 0000.0001) // o Tile number: 000101
(PID.TID 0000.0001) //         No. X exchanges =              0
(PID.TID 0000.0001) //            Max. X spins =              0
(PID.TID 0000.0001) //            Min. X spins =     1000000000
(PID.TID 0000.0001) //          Total. X spins =              0
(PID.TID 0000.0001) //            Avg. X spins =       0.00E+00
(PID.TID 0000.0001) //         No. Y exchanges =              0
(PID.TID 0000.0001) //            Max. Y spins =              0
(PID.TID 0000.0001) //            Min. Y spins =     1000000000
(PID.TID 0000.0001) //          Total. Y spins =              0
(PID.TID 0000.0001) //            Avg. Y spins =       0.00E+00
(PID.TID 0000.0001) // o Tile number: 000102
(PID.TID 0000.0001) //         No. X exchanges =              0
(PID.TID 0000.0001) //            Max. X spins =              0
(PID.TID 0000.0001) //            Min. X spins =     1000000000
(PID.TID 0000.0001) //          Total. X spins =              0
(PID.TID 0000.0001) //            Avg. X spins =       0.00E+00
(PID.TID 0000.0001) //         No. Y exchanges =              0
(PID.TID 0000.0001) //            Max. Y spins =              0
(PID.TID 0000.0001) //            Min. Y spins =     1000000000
(PID.TID 0000.0001) //          Total. Y spins =              0
(PID.TID 0000.0001) //            Avg. Y spins =       0.00E+00
(PID.TID 0000.0001) // o Tile number: 000103
(PID.TID 0000.0001) //         No. X exchanges =              0
(PID.TID 0000.0001) //            Max. X spins =              0
(PID.TID 0000.0001) //            Min. X spins =     1000000000
(PID.TID 0000.0001) //          Total. X spins =              0
(PID.TID 0000.0001) //            Avg. X spins =       0.00E+00
(PID.TID 0000.0001) //         No. Y exchanges =              0
(PID.TID 0000.0001) //            Max. Y spins =              0
(PID.TID 0000.0001) //            Min. Y spins =     1000000000
(PID.TID 0000.0001) //          Total. Y spins =              0
(PID.TID 0000.0001) //            Avg. Y spins =       0.00E+00
(PID.TID 0000.0001) // o Tile number: 000104
(PID.TID 0000.0001) //         No. X exchanges =              0
(PID.TID 0000.0001) //            Max. X spins =              0
(PID.TID 0000.0001) //            Min. X spins =     1000000000
(PID.TID 0000.0001) //          Total. X spins =              0
(PID.TID 0000.0001) //            Avg. X spins =       0.00E+00
(PID.TID 0000.0001) //         No. Y exchanges =              0
(PID.TID 0000.0001) //            Max. Y spins =              0
(PID.TID 0000.0001) //            Min. Y spins =     1000000000
(PID.TID 0000.0001) //          Total. Y spins =              0
(PID.TID 0000.0001) //            Avg. Y spins =       0.00E+00
(PID.TID 0000.0001) // o Tile number: 000105
(PID.TID 0000.0001) //         No. X exchanges =              0
(PID.TID 0000.0001) //            Max. X spins =              0
(PID.TID 0000.0001) //            Min. X spins =     1000000000
(PID.TID 0000.0001) //          Total. X spins =              0
(PID.TID 0000.0001) //            Avg. X spins =       0.00E+00
(PID.TID 0000.0001) //         No. Y exchanges =              0
(PID.TID 0000.0001) //            Max. Y spins =              0
(PID.TID 0000.0001) //            Min. Y spins =     1000000000
(PID.TID 0000.0001) //          Total. Y spins =              0
(PID.TID 0000.0001) //            Avg. Y spins =       0.00E+00
(PID.TID 0000.0001) // o Tile number: 000106
(PID.TID 0000.0001) //         No. X exchanges =              0
(PID.TID 0000.0001) //            Max. X spins =              0
(PID.TID 0000.0001) //            Min. X spins =     1000000000
(PID.TID 0000.0001) //          Total. X spins =              0
(PID.TID 0000.0001) //            Avg. X spins =       0.00E+00
(PID.TID 0000.0001) //         No. Y exchanges =              0
(PID.TID 0000.0001) //            Max. Y spins =              0
(PID.TID 0000.0001) //            Min. Y spins =     1000000000
(PID.TID 0000.0001) //          Total. Y spins =              0
(PID.TID 0000.0001) //            Avg. Y spins =       0.00E+00
(PID.TID 0000.0001) // o Tile number: 000107
(PID.TID 0000.0001) //         No. X exchanges =              0
(PID.TID 0000.0001) //            Max. X spins =              0
(PID.TID 0000.0001) //            Min. X spins =     1000000000
(PID.TID 0000.0001) //          Total. X spins =              0
(PID.TID 0000.0001) //            Avg. X spins =       0.00E+00
(PID.TID 0000.0001) //         No. Y exchanges =              0
(PID.TID 0000.0001) //            Max. Y spins =              0
(PID.TID 0000.0001) //            Min. Y spins =     1000000000
(PID.TID 0000.0001) //          Total. Y spins =              0
(PID.TID 0000.0001) //            Avg. Y spins =       0.00E+00
(PID.TID 0000.0001) // o Tile number: 000108
(PID.TID 0000.0001) //         No. X exchanges =              0
(PID.TID 0000.0001) //            Max. X spins =              0
(PID.TID 0000.0001) //            Min. X spins =     1000000000
(PID.TID 0000.0001) //          Total. X spins =              0
(PID.TID 0000.0001) //            Avg. X spins =       0.00E+00
(PID.TID 0000.0001) //         No. Y exchanges =              0
(PID.TID 0000.0001) //            Max. Y spins =              0
(PID.TID 0000.0001) //            Min. Y spins =     1000000000
(PID.TID 0000.0001) //          Total. Y spins =              0
(PID.TID 0000.0001) //            Avg. Y spins =       0.00E+00
(PID.TID 0000.0001) // o Tile number: 000109
(PID.TID 0000.0001) //         No. X exchanges =              0
(PID.TID 0000.0001) //            Max. X spins =              0
(PID.TID 0000.0001) //            Min. X spins =     1000000000
(PID.TID 0000.0001) //          Total. X spins =              0
(PID.TID 0000.0001) //            Avg. X spins =       0.00E+00
(PID.TID 0000.0001) //         No. Y exchanges =              0
(PID.TID 0000.0001) //            Max. Y spins =              0
(PID.TID 0000.0001) //            Min. Y spins =     1000000000
(PID.TID 0000.0001) //          Total. Y spins =              0
(PID.TID 0000.0001) //            Avg. Y spins =       0.00E+00
(PID.TID 0000.0001) // o Tile number: 000110
(PID.TID 0000.0001) //         No. X exchanges =              0
(PID.TID 0000.0001) //            Max. X spins =              0
(PID.TID 0000.0001) //            Min. X spins =     1000000000
(PID.TID 0000.0001) //          Total. X spins =              0
(PID.TID 0000.0001) //            Avg. X spins =       0.00E+00
(PID.TID 0000.0001) //         No. Y exchanges =              0
(PID.TID 0000.0001) //            Max. Y spins =              0
(PID.TID 0000.0001) //            Min. Y spins =     1000000000
(PID.TID 0000.0001) //          Total. Y spins =              0
(PID.TID 0000.0001) //            Avg. Y spins =       0.00E+00
(PID.TID 0000.0001) // o Tile number: 000111
(PID.TID 0000.0001) //         No. X exchanges =              0
(PID.TID 0000.0001) //            Max. X spins =              0
(PID.TID 0000.0001) //            Min. X spins =     1000000000
(PID.TID 0000.0001) //          Total. X spins =              0
(PID.TID 0000.0001) //            Avg. X spins =       0.00E+00
(PID.TID 0000.0001) //         No. Y exchanges =              0
(PID.TID 0000.0001) //            Max. Y spins =              0
(PID.TID 0000.0001) //            Min. Y spins =     1000000000
(PID.TID 0000.0001) //          Total. Y spins =              0
(PID.TID 0000.0001) //            Avg. Y spins =       0.00E+00
(PID.TID 0000.0001) // o Tile number: 000112
(PID.TID 0000.0001) //         No. X exchanges =              0
(PID.TID 0000.0001) //            Max. X spins =              0
(PID.TID 0000.0001) //            Min. X spins =     1000000000
(PID.TID 0000.0001) //          Total. X spins =              0
(PID.TID 0000.0001) //            Avg. X spins =       0.00E+00
(PID.TID 0000.0001) //         No. Y exchanges =              0
(PID.TID 0000.0001) //            Max. Y spins =              0
(PID.TID 0000.0001) //            Min. Y spins =     1000000000
(PID.TID 0000.0001) //          Total. Y spins =              0
(PID.TID 0000.0001) //            Avg. Y spins =       0.00E+00
(PID.TID 0000.0001) // o Tile number: 000113
(PID.TID 0000.0001) //         No. X exchanges =              0
(PID.TID 0000.0001) //            Max. X spins =              0
(PID.TID 0000.0001) //            Min. X spins =     1000000000
(PID.TID 0000.0001) //          Total. X spins =              0
(PID.TID 0000.0001) //            Avg. X spins =       0.00E+00
(PID.TID 0000.0001) //         No. Y exchanges =              0
(PID.TID 0000.0001) //            Max. Y spins =              0
(PID.TID 0000.0001) //            Min. Y spins =     1000000000
(PID.TID 0000.0001) //          Total. Y spins =              0
(PID.TID 0000.0001) //            Avg. Y spins =       0.00E+00
(PID.TID 0000.0001) // o Tile number: 000114
(PID.TID 0000.0001) //         No. X exchanges =              0
(PID.TID 0000.0001) //            Max. X spins =              0
(PID.TID 0000.0001) //            Min. X spins =     1000000000
(PID.TID 0000.0001) //          Total. X spins =              0
(PID.TID 0000.0001) //            Avg. X spins =       0.00E+00
(PID.TID 0000.0001) //         No. Y exchanges =              0
(PID.TID 0000.0001) //            Max. Y spins =              0
(PID.TID 0000.0001) //            Min. Y spins =     1000000000
(PID.TID 0000.0001) //          Total. Y spins =              0
(PID.TID 0000.0001) //            Avg. Y spins =       0.00E+00
(PID.TID 0000.0001) // o Tile number: 000115
(PID.TID 0000.0001) //         No. X exchanges =              0
(PID.TID 0000.0001) //            Max. X spins =              0
(PID.TID 0000.0001) //            Min. X spins =     1000000000
(PID.TID 0000.0001) //          Total. X spins =              0
(PID.TID 0000.0001) //            Avg. X spins =       0.00E+00
(PID.TID 0000.0001) //         No. Y exchanges =              0
(PID.TID 0000.0001) //            Max. Y spins =              0
(PID.TID 0000.0001) //            Min. Y spins =     1000000000
(PID.TID 0000.0001) //          Total. Y spins =              0
(PID.TID 0000.0001) //            Avg. Y spins =       0.00E+00
(PID.TID 0000.0001) // o Tile number: 000116
(PID.TID 0000.0001) //         No. X exchanges =              0
(PID.TID 0000.0001) //            Max. X spins =              0
(PID.TID 0000.0001) //            Min. X spins =     1000000000
(PID.TID 0000.0001) //          Total. X spins =              0
(PID.TID 0000.0001) //            Avg. X spins =       0.00E+00
(PID.TID 0000.0001) //         No. Y exchanges =              0
(PID.TID 0000.0001) //            Max. Y spins =              0
(PID.TID 0000.0001) //            Min. Y spins =     1000000000
(PID.TID 0000.0001) //          Total. Y spins =              0
(PID.TID 0000.0001) //            Avg. Y spins =       0.00E+00
(PID.TID 0000.0001) // o Tile number: 000117
(PID.TID 0000.0001) //         No. X exchanges =              0
(PID.TID 0000.0001) //            Max. X spins =              0
(PID.TID 0000.0001) //            Min. X spins =     1000000000
(PID.TID 0000.0001) //          Total. X spins =              0
(PID.TID 0000.0001) //            Avg. X spins =       0.00E+00
(PID.TID 0000.0001) //         No. Y exchanges =              0
(PID.TID 0000.0001) //            Max. Y spins =              0
(PID.TID 0000.0001) //            Min. Y spins =     1000000000
(PID.TID 0000.0001) //          Total. Y spins =              0
(PID.TID 0000.0001) //            Avg. Y spins =       0.00E+00
(PID.TID 0000.0001) // o Tile number: 000118
(PID.TID 0000.0001) //         No. X exchanges =              0
(PID.TID 0000.0001) //            Max. X spins =              0
(PID.TID 0000.0001) //            Min. X spins =     1000000000
(PID.TID 0000.0001) //          Total. X spins =              0
(PID.TID 0000.0001) //            Avg. X spins =       0.00E+00
(PID.TID 0000.0001) //         No. Y exchanges =              0
(PID.TID 0000.0001) //            Max. Y spins =              0
(PID.TID 0000.0001) //            Min. Y spins =     1000000000
(PID.TID 0000.0001) //          Total. Y spins =              0
(PID.TID 0000.0001) //            Avg. Y spins =       0.00E+00
(PID.TID 0000.0001) // o Tile number: 000119
(PID.TID 0000.0001) //         No. X exchanges =              0
(PID.TID 0000.0001) //            Max. X spins =              0
(PID.TID 0000.0001) //            Min. X spins =     1000000000
(PID.TID 0000.0001) //          Total. X spins =              0
(PID.TID 0000.0001) //            Avg. X spins =       0.00E+00
(PID.TID 0000.0001) //         No. Y exchanges =              0
(PID.TID 0000.0001) //            Max. Y spins =              0
(PID.TID 0000.0001) //            Min. Y spins =     1000000000
(PID.TID 0000.0001) //          Total. Y spins =              0
(PID.TID 0000.0001) //            Avg. Y spins =       0.00E+00
(PID.TID 0000.0001) // o Tile number: 000120
(PID.TID 0000.0001) //         No. X exchanges =              0
(PID.TID 0000.0001) //            Max. X spins =              0
(PID.TID 0000.0001) //            Min. X spins =     1000000000
(PID.TID 0000.0001) //          Total. X spins =              0
(PID.TID 0000.0001) //            Avg. X spins =       0.00E+00
(PID.TID 0000.0001) //         No. Y exchanges =              0
(PID.TID 0000.0001) //            Max. Y spins =              0
(PID.TID 0000.0001) //            Min. Y spins =     1000000000
(PID.TID 0000.0001) //          Total. Y spins =              0
(PID.TID 0000.0001) //            Avg. Y spins =       0.00E+00
(PID.TID 0000.0001) // o Tile number: 000121
(PID.TID 0000.0001) //         No. X exchanges =              0
(PID.TID 0000.0001) //            Max. X spins =              0
(PID.TID 0000.0001) //            Min. X spins =     1000000000
(PID.TID 0000.0001) //          Total. X spins =              0
(PID.TID 0000.0001) //            Avg. X spins =       0.00E+00
(PID.TID 0000.0001) //         No. Y exchanges =              0
(PID.TID 0000.0001) //            Max. Y spins =              0
(PID.TID 0000.0001) //            Min. Y spins =     1000000000
(PID.TID 0000.0001) //          Total. Y spins =              0
(PID.TID 0000.0001) //            Avg. Y spins =       0.00E+00
(PID.TID 0000.0001) // o Tile number: 000122
(PID.TID 0000.0001) //         No. X exchanges =              0
(PID.TID 0000.0001) //            Max. X spins =              0
(PID.TID 0000.0001) //            Min. X spins =     1000000000
(PID.TID 0000.0001) //          Total. X spins =              0
(PID.TID 0000.0001) //            Avg. X spins =       0.00E+00
(PID.TID 0000.0001) //         No. Y exchanges =              0
(PID.TID 0000.0001) //            Max. Y spins =              0
(PID.TID 0000.0001) //            Min. Y spins =     1000000000
(PID.TID 0000.0001) //          Total. Y spins =              0
(PID.TID 0000.0001) //            Avg. Y spins =       0.00E+00
(PID.TID 0000.0001) // o Tile number: 000123
(PID.TID 0000.0001) //         No. X exchanges =              0
(PID.TID 0000.0001) //            Max. X spins =              0
(PID.TID 0000.0001) //            Min. X spins =     1000000000
(PID.TID 0000.0001) //          Total. X spins =              0
(PID.TID 0000.0001) //            Avg. X spins =       0.00E+00
(PID.TID 0000.0001) //         No. Y exchanges =              0
(PID.TID 0000.0001) //            Max. Y spins =              0
(PID.TID 0000.0001) //            Min. Y spins =     1000000000
(PID.TID 0000.0001) //          Total. Y spins =              0
(PID.TID 0000.0001) //            Avg. Y spins =       0.00E+00
(PID.TID 0000.0001) // o Tile number: 000124
(PID.TID 0000.0001) //         No. X exchanges =              0
(PID.TID 0000.0001) //            Max. X spins =              0
(PID.TID 0000.0001) //            Min. X spins =     1000000000
(PID.TID 0000.0001) //          Total. X spins =              0
(PID.TID 0000.0001) //            Avg. X spins =       0.00E+00
(PID.TID 0000.0001) //         No. Y exchanges =              0
(PID.TID 0000.0001) //            Max. Y spins =              0
(PID.TID 0000.0001) //            Min. Y spins =     1000000000
(PID.TID 0000.0001) //          Total. Y spins =              0
(PID.TID 0000.0001) //            Avg. Y spins =       0.00E+00
(PID.TID 0000.0001) // o Tile number: 000125
(PID.TID 0000.0001) //         No. X exchanges =              0
(PID.TID 0000.0001) //            Max. X spins =              0
(PID.TID 0000.0001) //            Min. X spins =     1000000000
(PID.TID 0000.0001) //          Total. X spins =              0
(PID.TID 0000.0001) //            Avg. X spins =       0.00E+00
(PID.TID 0000.0001) //         No. Y exchanges =              0
(PID.TID 0000.0001) //            Max. Y spins =              0
(PID.TID 0000.0001) //            Min. Y spins =     1000000000
(PID.TID 0000.0001) //          Total. Y spins =              0
(PID.TID 0000.0001) //            Avg. Y spins =       0.00E+00
(PID.TID 0000.0001) // o Tile number: 000126
(PID.TID 0000.0001) //         No. X exchanges =              0
(PID.TID 0000.0001) //            Max. X spins =              0
(PID.TID 0000.0001) //            Min. X spins =     1000000000
(PID.TID 0000.0001) //          Total. X spins =              0
(PID.TID 0000.0001) //            Avg. X spins =       0.00E+00
(PID.TID 0000.0001) //         No. Y exchanges =              0
(PID.TID 0000.0001) //            Max. Y spins =              0
(PID.TID 0000.0001) //            Min. Y spins =     1000000000
(PID.TID 0000.0001) //          Total. Y spins =              0
(PID.TID 0000.0001) //            Avg. Y spins =       0.00E+00
(PID.TID 0000.0001) // o Tile number: 000127
(PID.TID 0000.0001) //         No. X exchanges =              0
(PID.TID 0000.0001) //            Max. X spins =              0
(PID.TID 0000.0001) //            Min. X spins =     1000000000
(PID.TID 0000.0001) //          Total. X spins =              0
(PID.TID 0000.0001) //            Avg. X spins =       0.00E+00
(PID.TID 0000.0001) //         No. Y exchanges =              0
(PID.TID 0000.0001) //            Max. Y spins =              0
(PID.TID 0000.0001) //            Min. Y spins =     1000000000
(PID.TID 0000.0001) //          Total. Y spins =              0
(PID.TID 0000.0001) //            Avg. Y spins =       0.00E+00
(PID.TID 0000.0001) // o Tile number: 000128
(PID.TID 0000.0001) //         No. X exchanges =              0
(PID.TID 0000.0001) //            Max. X spins =              0
(PID.TID 0000.0001) //            Min. X spins =     1000000000
(PID.TID 0000.0001) //          Total. X spins =              0
(PID.TID 0000.0001) //            Avg. X spins =       0.00E+00
(PID.TID 0000.0001) //         No. Y exchanges =              0
(PID.TID 0000.0001) //            Max. Y spins =              0
(PID.TID 0000.0001) //            Min. Y spins =     1000000000
(PID.TID 0000.0001) //          Total. Y spins =              0
(PID.TID 0000.0001) //            Avg. Y spins =       0.00E+00
(PID.TID 0000.0001) // o Tile number: 000129
(PID.TID 0000.0001) //         No. X exchanges =              0
(PID.TID 0000.0001) //            Max. X spins =              0
(PID.TID 0000.0001) //            Min. X spins =     1000000000
(PID.TID 0000.0001) //          Total. X spins =              0
(PID.TID 0000.0001) //            Avg. X spins =       0.00E+00
(PID.TID 0000.0001) //         No. Y exchanges =              0
(PID.TID 0000.0001) //            Max. Y spins =              0
(PID.TID 0000.0001) //            Min. Y spins =     1000000000
(PID.TID 0000.0001) //          Total. Y spins =              0
(PID.TID 0000.0001) //            Avg. Y spins =       0.00E+00
(PID.TID 0000.0001) // o Tile number: 000130
(PID.TID 0000.0001) //         No. X exchanges =              0
(PID.TID 0000.0001) //            Max. X spins =              0
(PID.TID 0000.0001) //            Min. X spins =     1000000000
(PID.TID 0000.0001) //          Total. X spins =              0
(PID.TID 0000.0001) //            Avg. X spins =       0.00E+00
(PID.TID 0000.0001) //         No. Y exchanges =              0
(PID.TID 0000.0001) //            Max. Y spins =              0
(PID.TID 0000.0001) //            Min. Y spins =     1000000000
(PID.TID 0000.0001) //          Total. Y spins =              0
(PID.TID 0000.0001) //            Avg. Y spins =       0.00E+00
(PID.TID 0000.0001) // o Tile number: 000131
(PID.TID 0000.0001) //         No. X exchanges =              0
(PID.TID 0000.0001) //            Max. X spins =              0
(PID.TID 0000.0001) //            Min. X spins =     1000000000
(PID.TID 0000.0001) //          Total. X spins =              0
(PID.TID 0000.0001) //            Avg. X spins =       0.00E+00
(PID.TID 0000.0001) //         No. Y exchanges =              0
(PID.TID 0000.0001) //            Max. Y spins =              0
(PID.TID 0000.0001) //            Min. Y spins =     1000000000
(PID.TID 0000.0001) //          Total. Y spins =              0
(PID.TID 0000.0001) //            Avg. Y spins =       0.00E+00
(PID.TID 0000.0001) // o Tile number: 000132
(PID.TID 0000.0001) //         No. X exchanges =              0
(PID.TID 0000.0001) //            Max. X spins =              0
(PID.TID 0000.0001) //            Min. X spins =     1000000000
(PID.TID 0000.0001) //          Total. X spins =              0
(PID.TID 0000.0001) //            Avg. X spins =       0.00E+00
(PID.TID 0000.0001) //         No. Y exchanges =              0
(PID.TID 0000.0001) //            Max. Y spins =              0
(PID.TID 0000.0001) //            Min. Y spins =     1000000000
(PID.TID 0000.0001) //          Total. Y spins =              0
(PID.TID 0000.0001) //            Avg. Y spins =       0.00E+00
(PID.TID 0000.0001) // o Tile number: 000133
(PID.TID 0000.0001) //         No. X exchanges =              0
(PID.TID 0000.0001) //            Max. X spins =              0
(PID.TID 0000.0001) //            Min. X spins =     1000000000
(PID.TID 0000.0001) //          Total. X spins =              0
(PID.TID 0000.0001) //            Avg. X spins =       0.00E+00
(PID.TID 0000.0001) //         No. Y exchanges =              0
(PID.TID 0000.0001) //            Max. Y spins =              0
(PID.TID 0000.0001) //            Min. Y spins =     1000000000
(PID.TID 0000.0001) //          Total. Y spins =              0
(PID.TID 0000.0001) //            Avg. Y spins =       0.00E+00
(PID.TID 0000.0001) // o Tile number: 000134
(PID.TID 0000.0001) //         No. X exchanges =              0
(PID.TID 0000.0001) //            Max. X spins =              0
(PID.TID 0000.0001) //            Min. X spins =     1000000000
(PID.TID 0000.0001) //          Total. X spins =              0
(PID.TID 0000.0001) //            Avg. X spins =       0.00E+00
(PID.TID 0000.0001) //         No. Y exchanges =              0
(PID.TID 0000.0001) //            Max. Y spins =              0
(PID.TID 0000.0001) //            Min. Y spins =     1000000000
(PID.TID 0000.0001) //          Total. Y spins =              0
(PID.TID 0000.0001) //            Avg. Y spins =       0.00E+00
(PID.TID 0000.0001) // o Tile number: 000135
(PID.TID 0000.0001) //         No. X exchanges =              0
(PID.TID 0000.0001) //            Max. X spins =              0
(PID.TID 0000.0001) //            Min. X spins =     1000000000
(PID.TID 0000.0001) //          Total. X spins =              0
(PID.TID 0000.0001) //            Avg. X spins =       0.00E+00
(PID.TID 0000.0001) //         No. Y exchanges =              0
(PID.TID 0000.0001) //            Max. Y spins =              0
(PID.TID 0000.0001) //            Min. Y spins =     1000000000
(PID.TID 0000.0001) //          Total. Y spins =              0
(PID.TID 0000.0001) //            Avg. Y spins =       0.00E+00
(PID.TID 0000.0001) // o Tile number: 000136
(PID.TID 0000.0001) //         No. X exchanges =              0
(PID.TID 0000.0001) //            Max. X spins =              0
(PID.TID 0000.0001) //            Min. X spins =     1000000000
(PID.TID 0000.0001) //          Total. X spins =              0
(PID.TID 0000.0001) //            Avg. X spins =       0.00E+00
(PID.TID 0000.0001) //         No. Y exchanges =              0
(PID.TID 0000.0001) //            Max. Y spins =              0
(PID.TID 0000.0001) //            Min. Y spins =     1000000000
(PID.TID 0000.0001) //          Total. Y spins =              0
(PID.TID 0000.0001) //            Avg. Y spins =       0.00E+00
(PID.TID 0000.0001) // o Tile number: 000137
(PID.TID 0000.0001) //         No. X exchanges =              0
(PID.TID 0000.0001) //            Max. X spins =              0
(PID.TID 0000.0001) //            Min. X spins =     1000000000
(PID.TID 0000.0001) //          Total. X spins =              0
(PID.TID 0000.0001) //            Avg. X spins =       0.00E+00
(PID.TID 0000.0001) //         No. Y exchanges =              0
(PID.TID 0000.0001) //            Max. Y spins =              0
(PID.TID 0000.0001) //            Min. Y spins =     1000000000
(PID.TID 0000.0001) //          Total. Y spins =              0
(PID.TID 0000.0001) //            Avg. Y spins =       0.00E+00
(PID.TID 0000.0001) // o Tile number: 000138
(PID.TID 0000.0001) //         No. X exchanges =              0
(PID.TID 0000.0001) //            Max. X spins =              0
(PID.TID 0000.0001) //            Min. X spins =     1000000000
(PID.TID 0000.0001) //          Total. X spins =              0
(PID.TID 0000.0001) //            Avg. X spins =       0.00E+00
(PID.TID 0000.0001) //         No. Y exchanges =              0
(PID.TID 0000.0001) //            Max. Y spins =              0
(PID.TID 0000.0001) //            Min. Y spins =     1000000000
(PID.TID 0000.0001) //          Total. Y spins =              0
(PID.TID 0000.0001) //            Avg. Y spins =       0.00E+00
(PID.TID 0000.0001) // o Tile number: 000139
(PID.TID 0000.0001) //         No. X exchanges =              0
(PID.TID 0000.0001) //            Max. X spins =              0
(PID.TID 0000.0001) //            Min. X spins =     1000000000
(PID.TID 0000.0001) //          Total. X spins =              0
(PID.TID 0000.0001) //            Avg. X spins =       0.00E+00
(PID.TID 0000.0001) //         No. Y exchanges =              0
(PID.TID 0000.0001) //            Max. Y spins =              0
(PID.TID 0000.0001) //            Min. Y spins =     1000000000
(PID.TID 0000.0001) //          Total. Y spins =              0
(PID.TID 0000.0001) //            Avg. Y spins =       0.00E+00
(PID.TID 0000.0001) // o Tile number: 000140
(PID.TID 0000.0001) //         No. X exchanges =              0
(PID.TID 0000.0001) //            Max. X spins =              0
(PID.TID 0000.0001) //            Min. X spins =     1000000000
(PID.TID 0000.0001) //          Total. X spins =              0
(PID.TID 0000.0001) //            Avg. X spins =       0.00E+00
(PID.TID 0000.0001) //         No. Y exchanges =              0
(PID.TID 0000.0001) //            Max. Y spins =              0
(PID.TID 0000.0001) //            Min. Y spins =     1000000000
(PID.TID 0000.0001) //          Total. Y spins =              0
(PID.TID 0000.0001) //            Avg. Y spins =       0.00E+00
(PID.TID 0000.0001) // o Tile number: 000141
(PID.TID 0000.0001) //         No. X exchanges =              0
(PID.TID 0000.0001) //            Max. X spins =              0
(PID.TID 0000.0001) //            Min. X spins =     1000000000
(PID.TID 0000.0001) //          Total. X spins =              0
(PID.TID 0000.0001) //            Avg. X spins =       0.00E+00
(PID.TID 0000.0001) //         No. Y exchanges =              0
(PID.TID 0000.0001) //            Max. Y spins =              0
(PID.TID 0000.0001) //            Min. Y spins =     1000000000
(PID.TID 0000.0001) //          Total. Y spins =              0
(PID.TID 0000.0001) //            Avg. Y spins =       0.00E+00
(PID.TID 0000.0001) // o Tile number: 000142
(PID.TID 0000.0001) //         No. X exchanges =              0
(PID.TID 0000.0001) //            Max. X spins =              0
(PID.TID 0000.0001) //            Min. X spins =     1000000000
(PID.TID 0000.0001) //          Total. X spins =              0
(PID.TID 0000.0001) //            Avg. X spins =       0.00E+00
(PID.TID 0000.0001) //         No. Y exchanges =              0
(PID.TID 0000.0001) //            Max. Y spins =              0
(PID.TID 0000.0001) //            Min. Y spins =     1000000000
(PID.TID 0000.0001) //          Total. Y spins =              0
(PID.TID 0000.0001) //            Avg. Y spins =       0.00E+00
(PID.TID 0000.0001) // o Tile number: 000143
(PID.TID 0000.0001) //         No. X exchanges =              0
(PID.TID 0000.0001) //            Max. X spins =              0
(PID.TID 0000.0001) //            Min. X spins =     1000000000
(PID.TID 0000.0001) //          Total. X spins =              0
(PID.TID 0000.0001) //            Avg. X spins =       0.00E+00
(PID.TID 0000.0001) //         No. Y exchanges =              0
(PID.TID 0000.0001) //            Max. Y spins =              0
(PID.TID 0000.0001) //            Min. Y spins =     1000000000
(PID.TID 0000.0001) //          Total. Y spins =              0
(PID.TID 0000.0001) //            Avg. Y spins =       0.00E+00
(PID.TID 0000.0001) // o Tile number: 000144
(PID.TID 0000.0001) //         No. X exchanges =              0
(PID.TID 0000.0001) //            Max. X spins =              0
(PID.TID 0000.0001) //            Min. X spins =     1000000000
(PID.TID 0000.0001) //          Total. X spins =              0
(PID.TID 0000.0001) //            Avg. X spins =       0.00E+00
(PID.TID 0000.0001) //         No. Y exchanges =              0
(PID.TID 0000.0001) //            Max. Y spins =              0
(PID.TID 0000.0001) //            Min. Y spins =     1000000000
(PID.TID 0000.0001) //          Total. Y spins =              0
(PID.TID 0000.0001) //            Avg. Y spins =       0.00E+00
(PID.TID 0000.0001) // o Tile number: 000145
(PID.TID 0000.0001) //         No. X exchanges =              0
(PID.TID 0000.0001) //            Max. X spins =              0
(PID.TID 0000.0001) //            Min. X spins =     1000000000
(PID.TID 0000.0001) //          Total. X spins =              0
(PID.TID 0000.0001) //            Avg. X spins =       0.00E+00
(PID.TID 0000.0001) //         No. Y exchanges =              0
(PID.TID 0000.0001) //            Max. Y spins =              0
(PID.TID 0000.0001) //            Min. Y spins =     1000000000
(PID.TID 0000.0001) //          Total. Y spins =              0
(PID.TID 0000.0001) //            Avg. Y spins =       0.00E+00
(PID.TID 0000.0001) // o Tile number: 000146
(PID.TID 0000.0001) //         No. X exchanges =              0
(PID.TID 0000.0001) //            Max. X spins =              0
(PID.TID 0000.0001) //            Min. X spins =     1000000000
(PID.TID 0000.0001) //          Total. X spins =              0
(PID.TID 0000.0001) //            Avg. X spins =       0.00E+00
(PID.TID 0000.0001) //         No. Y exchanges =              0
(PID.TID 0000.0001) //            Max. Y spins =              0
(PID.TID 0000.0001) //            Min. Y spins =     1000000000
(PID.TID 0000.0001) //          Total. Y spins =              0
(PID.TID 0000.0001) //            Avg. Y spins =       0.00E+00
(PID.TID 0000.0001) // o Tile number: 000147
(PID.TID 0000.0001) //         No. X exchanges =              0
(PID.TID 0000.0001) //            Max. X spins =              0
(PID.TID 0000.0001) //            Min. X spins =     1000000000
(PID.TID 0000.0001) //          Total. X spins =              0
(PID.TID 0000.0001) //            Avg. X spins =       0.00E+00
(PID.TID 0000.0001) //         No. Y exchanges =              0
(PID.TID 0000.0001) //            Max. Y spins =              0
(PID.TID 0000.0001) //            Min. Y spins =     1000000000
(PID.TID 0000.0001) //          Total. Y spins =              0
(PID.TID 0000.0001) //            Avg. Y spins =       0.00E+00
(PID.TID 0000.0001) // o Tile number: 000148
(PID.TID 0000.0001) //         No. X exchanges =              0
(PID.TID 0000.0001) //            Max. X spins =              0
(PID.TID 0000.0001) //            Min. X spins =     1000000000
(PID.TID 0000.0001) //          Total. X spins =              0
(PID.TID 0000.0001) //            Avg. X spins =       0.00E+00
(PID.TID 0000.0001) //         No. Y exchanges =              0
(PID.TID 0000.0001) //            Max. Y spins =              0
(PID.TID 0000.0001) //            Min. Y spins =     1000000000
(PID.TID 0000.0001) //          Total. Y spins =              0
(PID.TID 0000.0001) //            Avg. Y spins =       0.00E+00
(PID.TID 0000.0001) // o Tile number: 000149
(PID.TID 0000.0001) //         No. X exchanges =              0
(PID.TID 0000.0001) //            Max. X spins =              0
(PID.TID 0000.0001) //            Min. X spins =     1000000000
(PID.TID 0000.0001) //          Total. X spins =              0
(PID.TID 0000.0001) //            Avg. X spins =       0.00E+00
(PID.TID 0000.0001) //         No. Y exchanges =              0
(PID.TID 0000.0001) //            Max. Y spins =              0
(PID.TID 0000.0001) //            Min. Y spins =     1000000000
(PID.TID 0000.0001) //          Total. Y spins =              0
(PID.TID 0000.0001) //            Avg. Y spins =       0.00E+00
(PID.TID 0000.0001) // o Tile number: 000150
(PID.TID 0000.0001) //         No. X exchanges =              0
(PID.TID 0000.0001) //            Max. X spins =              0
(PID.TID 0000.0001) //            Min. X spins =     1000000000
(PID.TID 0000.0001) //          Total. X spins =              0
(PID.TID 0000.0001) //            Avg. X spins =       0.00E+00
(PID.TID 0000.0001) //         No. Y exchanges =              0
(PID.TID 0000.0001) //            Max. Y spins =              0
(PID.TID 0000.0001) //            Min. Y spins =     1000000000
(PID.TID 0000.0001) //          Total. Y spins =              0
(PID.TID 0000.0001) //            Avg. Y spins =       0.00E+00
(PID.TID 0000.0001) // o Tile number: 000151
(PID.TID 0000.0001) //         No. X exchanges =              0
(PID.TID 0000.0001) //            Max. X spins =              0
(PID.TID 0000.0001) //            Min. X spins =     1000000000
(PID.TID 0000.0001) //          Total. X spins =              0
(PID.TID 0000.0001) //            Avg. X spins =       0.00E+00
(PID.TID 0000.0001) //         No. Y exchanges =              0
(PID.TID 0000.0001) //            Max. Y spins =              0
(PID.TID 0000.0001) //            Min. Y spins =     1000000000
(PID.TID 0000.0001) //          Total. Y spins =              0
(PID.TID 0000.0001) //            Avg. Y spins =       0.00E+00
(PID.TID 0000.0001) // o Tile number: 000152
(PID.TID 0000.0001) //         No. X exchanges =              0
(PID.TID 0000.0001) //            Max. X spins =              0
(PID.TID 0000.0001) //            Min. X spins =     1000000000
(PID.TID 0000.0001) //          Total. X spins =              0
(PID.TID 0000.0001) //            Avg. X spins =       0.00E+00
(PID.TID 0000.0001) //         No. Y exchanges =              0
(PID.TID 0000.0001) //            Max. Y spins =              0
(PID.TID 0000.0001) //            Min. Y spins =     1000000000
(PID.TID 0000.0001) //          Total. Y spins =              0
(PID.TID 0000.0001) //            Avg. Y spins =       0.00E+00
(PID.TID 0000.0001) // o Tile number: 000153
(PID.TID 0000.0001) //         No. X exchanges =              0
(PID.TID 0000.0001) //            Max. X spins =              0
(PID.TID 0000.0001) //            Min. X spins =     1000000000
(PID.TID 0000.0001) //          Total. X spins =              0
(PID.TID 0000.0001) //            Avg. X spins =       0.00E+00
(PID.TID 0000.0001) //         No. Y exchanges =              0
(PID.TID 0000.0001) //            Max. Y spins =              0
(PID.TID 0000.0001) //            Min. Y spins =     1000000000
(PID.TID 0000.0001) //          Total. Y spins =              0
(PID.TID 0000.0001) //            Avg. Y spins =       0.00E+00
(PID.TID 0000.0001) // o Tile number: 000154
(PID.TID 0000.0001) //         No. X exchanges =              0
(PID.TID 0000.0001) //            Max. X spins =              0
(PID.TID 0000.0001) //            Min. X spins =     1000000000
(PID.TID 0000.0001) //          Total. X spins =              0
(PID.TID 0000.0001) //            Avg. X spins =       0.00E+00
(PID.TID 0000.0001) //         No. Y exchanges =              0
(PID.TID 0000.0001) //            Max. Y spins =              0
(PID.TID 0000.0001) //            Min. Y spins =     1000000000
(PID.TID 0000.0001) //          Total. Y spins =              0
(PID.TID 0000.0001) //            Avg. Y spins =       0.00E+00
(PID.TID 0000.0001) // o Tile number: 000155
(PID.TID 0000.0001) //         No. X exchanges =              0
(PID.TID 0000.0001) //            Max. X spins =              0
(PID.TID 0000.0001) //            Min. X spins =     1000000000
(PID.TID 0000.0001) //          Total. X spins =              0
(PID.TID 0000.0001) //            Avg. X spins =       0.00E+00
(PID.TID 0000.0001) //         No. Y exchanges =              0
(PID.TID 0000.0001) //            Max. Y spins =              0
(PID.TID 0000.0001) //            Min. Y spins =     1000000000
(PID.TID 0000.0001) //          Total. Y spins =              0
(PID.TID 0000.0001) //            Avg. Y spins =       0.00E+00
(PID.TID 0000.0001) // o Tile number: 000156
(PID.TID 0000.0001) //         No. X exchanges =              0
(PID.TID 0000.0001) //            Max. X spins =              0
(PID.TID 0000.0001) //            Min. X spins =     1000000000
(PID.TID 0000.0001) //          Total. X spins =              0
(PID.TID 0000.0001) //            Avg. X spins =       0.00E+00
(PID.TID 0000.0001) //         No. Y exchanges =              0
(PID.TID 0000.0001) //            Max. Y spins =              0
(PID.TID 0000.0001) //            Min. Y spins =     1000000000
(PID.TID 0000.0001) //          Total. Y spins =              0
(PID.TID 0000.0001) //            Avg. Y spins =       0.00E+00
(PID.TID 0000.0001) // o Tile number: 000157
(PID.TID 0000.0001) //         No. X exchanges =              0
(PID.TID 0000.0001) //            Max. X spins =              0
(PID.TID 0000.0001) //            Min. X spins =     1000000000
(PID.TID 0000.0001) //          Total. X spins =              0
(PID.TID 0000.0001) //            Avg. X spins =       0.00E+00
(PID.TID 0000.0001) //         No. Y exchanges =              0
(PID.TID 0000.0001) //            Max. Y spins =              0
(PID.TID 0000.0001) //            Min. Y spins =     1000000000
(PID.TID 0000.0001) //          Total. Y spins =              0
(PID.TID 0000.0001) //            Avg. Y spins =       0.00E+00
(PID.TID 0000.0001) // o Tile number: 000158
(PID.TID 0000.0001) //         No. X exchanges =              0
(PID.TID 0000.0001) //            Max. X spins =              0
(PID.TID 0000.0001) //            Min. X spins =     1000000000
(PID.TID 0000.0001) //          Total. X spins =              0
(PID.TID 0000.0001) //            Avg. X spins =       0.00E+00
(PID.TID 0000.0001) //         No. Y exchanges =              0
(PID.TID 0000.0001) //            Max. Y spins =              0
(PID.TID 0000.0001) //            Min. Y spins =     1000000000
(PID.TID 0000.0001) //          Total. Y spins =              0
(PID.TID 0000.0001) //            Avg. Y spins =       0.00E+00
(PID.TID 0000.0001) // o Tile number: 000159
(PID.TID 0000.0001) //         No. X exchanges =              0
(PID.TID 0000.0001) //            Max. X spins =              0
(PID.TID 0000.0001) //            Min. X spins =     1000000000
(PID.TID 0000.0001) //          Total. X spins =              0
(PID.TID 0000.0001) //            Avg. X spins =       0.00E+00
(PID.TID 0000.0001) //         No. Y exchanges =              0
(PID.TID 0000.0001) //            Max. Y spins =              0
(PID.TID 0000.0001) //            Min. Y spins =     1000000000
(PID.TID 0000.0001) //          Total. Y spins =              0
(PID.TID 0000.0001) //            Avg. Y spins =       0.00E+00
(PID.TID 0000.0001) // o Tile number: 000160
(PID.TID 0000.0001) //         No. X exchanges =              0
(PID.TID 0000.0001) //            Max. X spins =              0
(PID.TID 0000.0001) //            Min. X spins =     1000000000
(PID.TID 0000.0001) //          Total. X spins =              0
(PID.TID 0000.0001) //            Avg. X spins =       0.00E+00
(PID.TID 0000.0001) //         No. Y exchanges =              0
(PID.TID 0000.0001) //            Max. Y spins =              0
(PID.TID 0000.0001) //            Min. Y spins =     1000000000
(PID.TID 0000.0001) //          Total. Y spins =              0
(PID.TID 0000.0001) //            Avg. Y spins =       0.00E+00
(PID.TID 0000.0001) // o Tile number: 000161
(PID.TID 0000.0001) //         No. X exchanges =              0
(PID.TID 0000.0001) //            Max. X spins =              0
(PID.TID 0000.0001) //            Min. X spins =     1000000000
(PID.TID 0000.0001) //          Total. X spins =              0
(PID.TID 0000.0001) //            Avg. X spins =       0.00E+00
(PID.TID 0000.0001) //         No. Y exchanges =              0
(PID.TID 0000.0001) //            Max. Y spins =              0
(PID.TID 0000.0001) //            Min. Y spins =     1000000000
(PID.TID 0000.0001) //          Total. Y spins =              0
(PID.TID 0000.0001) //            Avg. Y spins =       0.00E+00
(PID.TID 0000.0001) // o Tile number: 000162
(PID.TID 0000.0001) //         No. X exchanges =              0
(PID.TID 0000.0001) //            Max. X spins =              0
(PID.TID 0000.0001) //            Min. X spins =     1000000000
(PID.TID 0000.0001) //          Total. X spins =              0
(PID.TID 0000.0001) //            Avg. X spins =       0.00E+00
(PID.TID 0000.0001) //         No. Y exchanges =              0
(PID.TID 0000.0001) //            Max. Y spins =              0
(PID.TID 0000.0001) //            Min. Y spins =     1000000000
(PID.TID 0000.0001) //          Total. Y spins =              0
(PID.TID 0000.0001) //            Avg. Y spins =       0.00E+00
(PID.TID 0000.0001) // o Tile number: 000163
(PID.TID 0000.0001) //         No. X exchanges =              0
(PID.TID 0000.0001) //            Max. X spins =              0
(PID.TID 0000.0001) //            Min. X spins =     1000000000
(PID.TID 0000.0001) //          Total. X spins =              0
(PID.TID 0000.0001) //            Avg. X spins =       0.00E+00
(PID.TID 0000.0001) //         No. Y exchanges =              0
(PID.TID 0000.0001) //            Max. Y spins =              0
(PID.TID 0000.0001) //            Min. Y spins =     1000000000
(PID.TID 0000.0001) //          Total. Y spins =              0
(PID.TID 0000.0001) //            Avg. Y spins =       0.00E+00
(PID.TID 0000.0001) // o Tile number: 000164
(PID.TID 0000.0001) //         No. X exchanges =              0
(PID.TID 0000.0001) //            Max. X spins =              0
(PID.TID 0000.0001) //            Min. X spins =     1000000000
(PID.TID 0000.0001) //          Total. X spins =              0
(PID.TID 0000.0001) //            Avg. X spins =       0.00E+00
(PID.TID 0000.0001) //         No. Y exchanges =              0
(PID.TID 0000.0001) //            Max. Y spins =              0
(PID.TID 0000.0001) //            Min. Y spins =     1000000000
(PID.TID 0000.0001) //          Total. Y spins =              0
(PID.TID 0000.0001) //            Avg. Y spins =       0.00E+00
(PID.TID 0000.0001) // o Tile number: 000165
(PID.TID 0000.0001) //         No. X exchanges =              0
(PID.TID 0000.0001) //            Max. X spins =              0
(PID.TID 0000.0001) //            Min. X spins =     1000000000
(PID.TID 0000.0001) //          Total. X spins =              0
(PID.TID 0000.0001) //            Avg. X spins =       0.00E+00
(PID.TID 0000.0001) //         No. Y exchanges =              0
(PID.TID 0000.0001) //            Max. Y spins =              0
(PID.TID 0000.0001) //            Min. Y spins =     1000000000
(PID.TID 0000.0001) //          Total. Y spins =              0
(PID.TID 0000.0001) //            Avg. Y spins =       0.00E+00
(PID.TID 0000.0001) // o Tile number: 000166
(PID.TID 0000.0001) //         No. X exchanges =              0
(PID.TID 0000.0001) //            Max. X spins =              0
(PID.TID 0000.0001) //            Min. X spins =     1000000000
(PID.TID 0000.0001) //          Total. X spins =              0
(PID.TID 0000.0001) //            Avg. X spins =       0.00E+00
(PID.TID 0000.0001) //         No. Y exchanges =              0
(PID.TID 0000.0001) //            Max. Y spins =              0
(PID.TID 0000.0001) //            Min. Y spins =     1000000000
(PID.TID 0000.0001) //          Total. Y spins =              0
(PID.TID 0000.0001) //            Avg. Y spins =       0.00E+00
(PID.TID 0000.0001) // o Tile number: 000167
(PID.TID 0000.0001) //         No. X exchanges =              0
(PID.TID 0000.0001) //            Max. X spins =              0
(PID.TID 0000.0001) //            Min. X spins =     1000000000
(PID.TID 0000.0001) //          Total. X spins =              0
(PID.TID 0000.0001) //            Avg. X spins =       0.00E+00
(PID.TID 0000.0001) //         No. Y exchanges =              0
(PID.TID 0000.0001) //            Max. Y spins =              0
(PID.TID 0000.0001) //            Min. Y spins =     1000000000
(PID.TID 0000.0001) //          Total. Y spins =              0
(PID.TID 0000.0001) //            Avg. Y spins =       0.00E+00
(PID.TID 0000.0001) // o Tile number: 000168
(PID.TID 0000.0001) //         No. X exchanges =              0
(PID.TID 0000.0001) //            Max. X spins =              0
(PID.TID 0000.0001) //            Min. X spins =     1000000000
(PID.TID 0000.0001) //          Total. X spins =              0
(PID.TID 0000.0001) //            Avg. X spins =       0.00E+00
(PID.TID 0000.0001) //         No. Y exchanges =              0
(PID.TID 0000.0001) //            Max. Y spins =              0
(PID.TID 0000.0001) //            Min. Y spins =     1000000000
(PID.TID 0000.0001) //          Total. Y spins =              0
(PID.TID 0000.0001) //            Avg. Y spins =       0.00E+00
(PID.TID 0000.0001) // o Tile number: 000169
(PID.TID 0000.0001) //         No. X exchanges =              0
(PID.TID 0000.0001) //            Max. X spins =              0
(PID.TID 0000.0001) //            Min. X spins =     1000000000
(PID.TID 0000.0001) //          Total. X spins =              0
(PID.TID 0000.0001) //            Avg. X spins =       0.00E+00
(PID.TID 0000.0001) //         No. Y exchanges =              0
(PID.TID 0000.0001) //            Max. Y spins =              0
(PID.TID 0000.0001) //            Min. Y spins =     1000000000
(PID.TID 0000.0001) //          Total. Y spins =              0
(PID.TID 0000.0001) //            Avg. Y spins =       0.00E+00
(PID.TID 0000.0001) // o Tile number: 000170
(PID.TID 0000.0001) //         No. X exchanges =              0
(PID.TID 0000.0001) //            Max. X spins =              0
(PID.TID 0000.0001) //            Min. X spins =     1000000000
(PID.TID 0000.0001) //          Total. X spins =              0
(PID.TID 0000.0001) //            Avg. X spins =       0.00E+00
(PID.TID 0000.0001) //         No. Y exchanges =              0
(PID.TID 0000.0001) //            Max. Y spins =              0
(PID.TID 0000.0001) //            Min. Y spins =     1000000000
(PID.TID 0000.0001) //          Total. Y spins =              0
(PID.TID 0000.0001) //            Avg. Y spins =       0.00E+00
(PID.TID 0000.0001) // o Tile number: 000171
(PID.TID 0000.0001) //         No. X exchanges =              0
(PID.TID 0000.0001) //            Max. X spins =              0
(PID.TID 0000.0001) //            Min. X spins =     1000000000
(PID.TID 0000.0001) //          Total. X spins =              0
(PID.TID 0000.0001) //            Avg. X spins =       0.00E+00
(PID.TID 0000.0001) //         No. Y exchanges =              0
(PID.TID 0000.0001) //            Max. Y spins =              0
(PID.TID 0000.0001) //            Min. Y spins =     1000000000
(PID.TID 0000.0001) //          Total. Y spins =              0
(PID.TID 0000.0001) //            Avg. Y spins =       0.00E+00
(PID.TID 0000.0001) // o Tile number: 000172
(PID.TID 0000.0001) //         No. X exchanges =              0
(PID.TID 0000.0001) //            Max. X spins =              0
(PID.TID 0000.0001) //            Min. X spins =     1000000000
(PID.TID 0000.0001) //          Total. X spins =              0
(PID.TID 0000.0001) //            Avg. X spins =       0.00E+00
(PID.TID 0000.0001) //         No. Y exchanges =              0
(PID.TID 0000.0001) //            Max. Y spins =              0
(PID.TID 0000.0001) //            Min. Y spins =     1000000000
(PID.TID 0000.0001) //          Total. Y spins =              0
(PID.TID 0000.0001) //            Avg. Y spins =       0.00E+00
(PID.TID 0000.0001) // o Tile number: 000173
(PID.TID 0000.0001) //         No. X exchanges =              0
(PID.TID 0000.0001) //            Max. X spins =              0
(PID.TID 0000.0001) //            Min. X spins =     1000000000
(PID.TID 0000.0001) //          Total. X spins =              0
(PID.TID 0000.0001) //            Avg. X spins =       0.00E+00
(PID.TID 0000.0001) //         No. Y exchanges =              0
(PID.TID 0000.0001) //            Max. Y spins =              0
(PID.TID 0000.0001) //            Min. Y spins =     1000000000
(PID.TID 0000.0001) //          Total. Y spins =              0
(PID.TID 0000.0001) //            Avg. Y spins =       0.00E+00
(PID.TID 0000.0001) // o Tile number: 000174
(PID.TID 0000.0001) //         No. X exchanges =              0
(PID.TID 0000.0001) //            Max. X spins =              0
(PID.TID 0000.0001) //            Min. X spins =     1000000000
(PID.TID 0000.0001) //          Total. X spins =              0
(PID.TID 0000.0001) //            Avg. X spins =       0.00E+00
(PID.TID 0000.0001) //         No. Y exchanges =              0
(PID.TID 0000.0001) //            Max. Y spins =              0
(PID.TID 0000.0001) //            Min. Y spins =     1000000000
(PID.TID 0000.0001) //          Total. Y spins =              0
(PID.TID 0000.0001) //            Avg. Y spins =       0.00E+00
(PID.TID 0000.0001) // o Tile number: 000175
(PID.TID 0000.0001) //         No. X exchanges =              0
(PID.TID 0000.0001) //            Max. X spins =              0
(PID.TID 0000.0001) //            Min. X spins =     1000000000
(PID.TID 0000.0001) //          Total. X spins =              0
(PID.TID 0000.0001) //            Avg. X spins =       0.00E+00
(PID.TID 0000.0001) //         No. Y exchanges =              0
(PID.TID 0000.0001) //            Max. Y spins =              0
(PID.TID 0000.0001) //            Min. Y spins =     1000000000
(PID.TID 0000.0001) //          Total. Y spins =              0
(PID.TID 0000.0001) //            Avg. Y spins =       0.00E+00
(PID.TID 0000.0001) // o Tile number: 000176
(PID.TID 0000.0001) //         No. X exchanges =              0
(PID.TID 0000.0001) //            Max. X spins =              0
(PID.TID 0000.0001) //            Min. X spins =     1000000000
(PID.TID 0000.0001) //          Total. X spins =              0
(PID.TID 0000.0001) //            Avg. X spins =       0.00E+00
(PID.TID 0000.0001) //         No. Y exchanges =              0
(PID.TID 0000.0001) //            Max. Y spins =              0
(PID.TID 0000.0001) //            Min. Y spins =     1000000000
(PID.TID 0000.0001) //          Total. Y spins =              0
(PID.TID 0000.0001) //            Avg. Y spins =       0.00E+00
(PID.TID 0000.0001) // o Tile number: 000177
(PID.TID 0000.0001) //         No. X exchanges =              0
(PID.TID 0000.0001) //            Max. X spins =              0
(PID.TID 0000.0001) //            Min. X spins =     1000000000
(PID.TID 0000.0001) //          Total. X spins =              0
(PID.TID 0000.0001) //            Avg. X spins =       0.00E+00
(PID.TID 0000.0001) //         No. Y exchanges =              0
(PID.TID 0000.0001) //            Max. Y spins =              0
(PID.TID 0000.0001) //            Min. Y spins =     1000000000
(PID.TID 0000.0001) //          Total. Y spins =              0
(PID.TID 0000.0001) //            Avg. Y spins =       0.00E+00
(PID.TID 0000.0001) // o Tile number: 000178
(PID.TID 0000.0001) //         No. X exchanges =              0
(PID.TID 0000.0001) //            Max. X spins =              0
(PID.TID 0000.0001) //            Min. X spins =     1000000000
(PID.TID 0000.0001) //          Total. X spins =              0
(PID.TID 0000.0001) //            Avg. X spins =       0.00E+00
(PID.TID 0000.0001) //         No. Y exchanges =              0
(PID.TID 0000.0001) //            Max. Y spins =              0
(PID.TID 0000.0001) //            Min. Y spins =     1000000000
(PID.TID 0000.0001) //          Total. Y spins =              0
(PID.TID 0000.0001) //            Avg. Y spins =       0.00E+00
(PID.TID 0000.0001) // o Tile number: 000179
(PID.TID 0000.0001) //         No. X exchanges =              0
(PID.TID 0000.0001) //            Max. X spins =              0
(PID.TID 0000.0001) //            Min. X spins =     1000000000
(PID.TID 0000.0001) //          Total. X spins =              0
(PID.TID 0000.0001) //            Avg. X spins =       0.00E+00
(PID.TID 0000.0001) //         No. Y exchanges =              0
(PID.TID 0000.0001) //            Max. Y spins =              0
(PID.TID 0000.0001) //            Min. Y spins =     1000000000
(PID.TID 0000.0001) //          Total. Y spins =              0
(PID.TID 0000.0001) //            Avg. Y spins =       0.00E+00
(PID.TID 0000.0001) // o Tile number: 000180
(PID.TID 0000.0001) //         No. X exchanges =              0
(PID.TID 0000.0001) //            Max. X spins =              0
(PID.TID 0000.0001) //            Min. X spins =     1000000000
(PID.TID 0000.0001) //          Total. X spins =              0
(PID.TID 0000.0001) //            Avg. X spins =       0.00E+00
(PID.TID 0000.0001) //         No. Y exchanges =              0
(PID.TID 0000.0001) //            Max. Y spins =              0
(PID.TID 0000.0001) //            Min. Y spins =     1000000000
(PID.TID 0000.0001) //          Total. Y spins =              0
(PID.TID 0000.0001) //            Avg. Y spins =       0.00E+00
(PID.TID 0000.0001) // o Tile number: 000181
(PID.TID 0000.0001) //         No. X exchanges =              0
(PID.TID 0000.0001) //            Max. X spins =              0
(PID.TID 0000.0001) //            Min. X spins =     1000000000
(PID.TID 0000.0001) //          Total. X spins =              0
(PID.TID 0000.0001) //            Avg. X spins =       0.00E+00
(PID.TID 0000.0001) //         No. Y exchanges =              0
(PID.TID 0000.0001) //            Max. Y spins =              0
(PID.TID 0000.0001) //            Min. Y spins =     1000000000
(PID.TID 0000.0001) //          Total. Y spins =              0
(PID.TID 0000.0001) //            Avg. Y spins =       0.00E+00
(PID.TID 0000.0001) // o Tile number: 000182
(PID.TID 0000.0001) //         No. X exchanges =              0
(PID.TID 0000.0001) //            Max. X spins =              0
(PID.TID 0000.0001) //            Min. X spins =     1000000000
(PID.TID 0000.0001) //          Total. X spins =              0
(PID.TID 0000.0001) //            Avg. X spins =       0.00E+00
(PID.TID 0000.0001) //         No. Y exchanges =              0
(PID.TID 0000.0001) //            Max. Y spins =              0
(PID.TID 0000.0001) //            Min. Y spins =     1000000000
(PID.TID 0000.0001) //          Total. Y spins =              0
(PID.TID 0000.0001) //            Avg. Y spins =       0.00E+00
(PID.TID 0000.0001) // o Tile number: 000183
(PID.TID 0000.0001) //         No. X exchanges =              0
(PID.TID 0000.0001) //            Max. X spins =              0
(PID.TID 0000.0001) //            Min. X spins =     1000000000
(PID.TID 0000.0001) //          Total. X spins =              0
(PID.TID 0000.0001) //            Avg. X spins =       0.00E+00
(PID.TID 0000.0001) //         No. Y exchanges =              0
(PID.TID 0000.0001) //            Max. Y spins =              0
(PID.TID 0000.0001) //            Min. Y spins =     1000000000
(PID.TID 0000.0001) //          Total. Y spins =              0
(PID.TID 0000.0001) //            Avg. Y spins =       0.00E+00
(PID.TID 0000.0001) // o Tile number: 000184
(PID.TID 0000.0001) //         No. X exchanges =              0
(PID.TID 0000.0001) //            Max. X spins =              0
(PID.TID 0000.0001) //            Min. X spins =     1000000000
(PID.TID 0000.0001) //          Total. X spins =              0
(PID.TID 0000.0001) //            Avg. X spins =       0.00E+00
(PID.TID 0000.0001) //         No. Y exchanges =              0
(PID.TID 0000.0001) //            Max. Y spins =              0
(PID.TID 0000.0001) //            Min. Y spins =     1000000000
(PID.TID 0000.0001) //          Total. Y spins =              0
(PID.TID 0000.0001) //            Avg. Y spins =       0.00E+00
(PID.TID 0000.0001) // o Tile number: 000185
(PID.TID 0000.0001) //         No. X exchanges =              0
(PID.TID 0000.0001) //            Max. X spins =              0
(PID.TID 0000.0001) //            Min. X spins =     1000000000
(PID.TID 0000.0001) //          Total. X spins =              0
(PID.TID 0000.0001) //            Avg. X spins =       0.00E+00
(PID.TID 0000.0001) //         No. Y exchanges =              0
(PID.TID 0000.0001) //            Max. Y spins =              0
(PID.TID 0000.0001) //            Min. Y spins =     1000000000
(PID.TID 0000.0001) //          Total. Y spins =              0
(PID.TID 0000.0001) //            Avg. Y spins =       0.00E+00
(PID.TID 0000.0001) // o Tile number: 000186
(PID.TID 0000.0001) //         No. X exchanges =              0
(PID.TID 0000.0001) //            Max. X spins =              0
(PID.TID 0000.0001) //            Min. X spins =     1000000000
(PID.TID 0000.0001) //          Total. X spins =              0
(PID.TID 0000.0001) //            Avg. X spins =       0.00E+00
(PID.TID 0000.0001) //         No. Y exchanges =              0
(PID.TID 0000.0001) //            Max. Y spins =              0
(PID.TID 0000.0001) //            Min. Y spins =     1000000000
(PID.TID 0000.0001) //          Total. Y spins =              0
(PID.TID 0000.0001) //            Avg. Y spins =       0.00E+00
(PID.TID 0000.0001) // o Tile number: 000187
(PID.TID 0000.0001) //         No. X exchanges =              0
(PID.TID 0000.0001) //            Max. X spins =              0
(PID.TID 0000.0001) //            Min. X spins =     1000000000
(PID.TID 0000.0001) //          Total. X spins =              0
(PID.TID 0000.0001) //            Avg. X spins =       0.00E+00
(PID.TID 0000.0001) //         No. Y exchanges =              0
(PID.TID 0000.0001) //            Max. Y spins =              0
(PID.TID 0000.0001) //            Min. Y spins =     1000000000
(PID.TID 0000.0001) //          Total. Y spins =              0
(PID.TID 0000.0001) //            Avg. Y spins =       0.00E+00
(PID.TID 0000.0001) // o Tile number: 000188
(PID.TID 0000.0001) //         No. X exchanges =              0
(PID.TID 0000.0001) //            Max. X spins =              0
(PID.TID 0000.0001) //            Min. X spins =     1000000000
(PID.TID 0000.0001) //          Total. X spins =              0
(PID.TID 0000.0001) //            Avg. X spins =       0.00E+00
(PID.TID 0000.0001) //         No. Y exchanges =              0
(PID.TID 0000.0001) //            Max. Y spins =              0
(PID.TID 0000.0001) //            Min. Y spins =     1000000000
(PID.TID 0000.0001) //          Total. Y spins =              0
(PID.TID 0000.0001) //            Avg. Y spins =       0.00E+00
(PID.TID 0000.0001) // o Tile number: 000189
(PID.TID 0000.0001) //         No. X exchanges =              0
(PID.TID 0000.0001) //            Max. X spins =              0
(PID.TID 0000.0001) //            Min. X spins =     1000000000
(PID.TID 0000.0001) //          Total. X spins =              0
(PID.TID 0000.0001) //            Avg. X spins =       0.00E+00
(PID.TID 0000.0001) //         No. Y exchanges =              0
(PID.TID 0000.0001) //            Max. Y spins =              0
(PID.TID 0000.0001) //            Min. Y spins =     1000000000
(PID.TID 0000.0001) //          Total. Y spins =              0
(PID.TID 0000.0001) //            Avg. Y spins =       0.00E+00
(PID.TID 0000.0001) // o Tile number: 000190
(PID.TID 0000.0001) //         No. X exchanges =              0
(PID.TID 0000.0001) //            Max. X spins =              0
(PID.TID 0000.0001) //            Min. X spins =     1000000000
(PID.TID 0000.0001) //          Total. X spins =              0
(PID.TID 0000.0001) //            Avg. X spins =       0.00E+00
(PID.TID 0000.0001) //         No. Y exchanges =              0
(PID.TID 0000.0001) //            Max. Y spins =              0
(PID.TID 0000.0001) //            Min. Y spins =     1000000000
(PID.TID 0000.0001) //          Total. Y spins =              0
(PID.TID 0000.0001) //            Avg. Y spins =       0.00E+00
(PID.TID 0000.0001) // o Tile number: 000191
(PID.TID 0000.0001) //         No. X exchanges =              0
(PID.TID 0000.0001) //            Max. X spins =              0
(PID.TID 0000.0001) //            Min. X spins =     1000000000
(PID.TID 0000.0001) //          Total. X spins =              0
(PID.TID 0000.0001) //            Avg. X spins =       0.00E+00
(PID.TID 0000.0001) //         No. Y exchanges =              0
(PID.TID 0000.0001) //            Max. Y spins =              0
(PID.TID 0000.0001) //            Min. Y spins =     1000000000
(PID.TID 0000.0001) //          Total. Y spins =              0
(PID.TID 0000.0001) //            Avg. Y spins =       0.00E+00
(PID.TID 0000.0001) // o Tile number: 000192
(PID.TID 0000.0001) //         No. X exchanges =              0
(PID.TID 0000.0001) //            Max. X spins =              0
(PID.TID 0000.0001) //            Min. X spins =     1000000000
(PID.TID 0000.0001) //          Total. X spins =              0
(PID.TID 0000.0001) //            Avg. X spins =       0.00E+00
(PID.TID 0000.0001) //         No. Y exchanges =              0
(PID.TID 0000.0001) //            Max. Y spins =              0
(PID.TID 0000.0001) //            Min. Y spins =     1000000000
(PID.TID 0000.0001) //          Total. Y spins =              0
(PID.TID 0000.0001) //            Avg. Y spins =       0.00E+00
(PID.TID 0000.0001) // o Tile number: 000193
(PID.TID 0000.0001) //         No. X exchanges =              0
(PID.TID 0000.0001) //            Max. X spins =              0
(PID.TID 0000.0001) //            Min. X spins =     1000000000
(PID.TID 0000.0001) //          Total. X spins =              0
(PID.TID 0000.0001) //            Avg. X spins =       0.00E+00
(PID.TID 0000.0001) //         No. Y exchanges =              0
(PID.TID 0000.0001) //            Max. Y spins =              0
(PID.TID 0000.0001) //            Min. Y spins =     1000000000
(PID.TID 0000.0001) //          Total. Y spins =              0
(PID.TID 0000.0001) //            Avg. Y spins =       0.00E+00
(PID.TID 0000.0001) // o Tile number: 000194
(PID.TID 0000.0001) //         No. X exchanges =              0
(PID.TID 0000.0001) //            Max. X spins =              0
(PID.TID 0000.0001) //            Min. X spins =     1000000000
(PID.TID 0000.0001) //          Total. X spins =              0
(PID.TID 0000.0001) //            Avg. X spins =       0.00E+00
(PID.TID 0000.0001) //         No. Y exchanges =              0
(PID.TID 0000.0001) //            Max. Y spins =              0
(PID.TID 0000.0001) //            Min. Y spins =     1000000000
(PID.TID 0000.0001) //          Total. Y spins =              0
(PID.TID 0000.0001) //            Avg. Y spins =       0.00E+00
(PID.TID 0000.0001) // o Tile number: 000195
(PID.TID 0000.0001) //         No. X exchanges =              0
(PID.TID 0000.0001) //            Max. X spins =              0
(PID.TID 0000.0001) //            Min. X spins =     1000000000
(PID.TID 0000.0001) //          Total. X spins =              0
(PID.TID 0000.0001) //            Avg. X spins =       0.00E+00
(PID.TID 0000.0001) //         No. Y exchanges =              0
(PID.TID 0000.0001) //            Max. Y spins =              0
(PID.TID 0000.0001) //            Min. Y spins =     1000000000
(PID.TID 0000.0001) //          Total. Y spins =              0
(PID.TID 0000.0001) //            Avg. Y spins =       0.00E+00
(PID.TID 0000.0001) // o Tile number: 000196
(PID.TID 0000.0001) //         No. X exchanges =              0
(PID.TID 0000.0001) //            Max. X spins =              0
(PID.TID 0000.0001) //            Min. X spins =     1000000000
(PID.TID 0000.0001) //          Total. X spins =              0
(PID.TID 0000.0001) //            Avg. X spins =       0.00E+00
(PID.TID 0000.0001) //         No. Y exchanges =              0
(PID.TID 0000.0001) //            Max. Y spins =              0
(PID.TID 0000.0001) //            Min. Y spins =     1000000000
(PID.TID 0000.0001) //          Total. Y spins =              0
(PID.TID 0000.0001) //            Avg. Y spins =       0.00E+00
(PID.TID 0000.0001) // o Tile number: 000197
(PID.TID 0000.0001) //         No. X exchanges =              0
(PID.TID 0000.0001) //            Max. X spins =              0
(PID.TID 0000.0001) //            Min. X spins =     1000000000
(PID.TID 0000.0001) //          Total. X spins =              0
(PID.TID 0000.0001) //            Avg. X spins =       0.00E+00
(PID.TID 0000.0001) //         No. Y exchanges =              0
(PID.TID 0000.0001) //            Max. Y spins =              0
(PID.TID 0000.0001) //            Min. Y spins =     1000000000
(PID.TID 0000.0001) //          Total. Y spins =              0
(PID.TID 0000.0001) //            Avg. Y spins =       0.00E+00
(PID.TID 0000.0001) // o Tile number: 000198
(PID.TID 0000.0001) //         No. X exchanges =              0
(PID.TID 0000.0001) //            Max. X spins =              0
(PID.TID 0000.0001) //            Min. X spins =     1000000000
(PID.TID 0000.0001) //          Total. X spins =              0
(PID.TID 0000.0001) //            Avg. X spins =       0.00E+00
(PID.TID 0000.0001) //         No. Y exchanges =              0
(PID.TID 0000.0001) //            Max. Y spins =              0
(PID.TID 0000.0001) //            Min. Y spins =     1000000000
(PID.TID 0000.0001) //          Total. Y spins =              0
(PID.TID 0000.0001) //            Avg. Y spins =       0.00E+00
(PID.TID 0000.0001) // o Tile number: 000199
(PID.TID 0000.0001) //         No. X exchanges =              0
(PID.TID 0000.0001) //            Max. X spins =              0
(PID.TID 0000.0001) //            Min. X spins =     1000000000
(PID.TID 0000.0001) //          Total. X spins =              0
(PID.TID 0000.0001) //            Avg. X spins =       0.00E+00
(PID.TID 0000.0001) //         No. Y exchanges =              0
(PID.TID 0000.0001) //            Max. Y spins =              0
(PID.TID 0000.0001) //            Min. Y spins =     1000000000
(PID.TID 0000.0001) //          Total. Y spins =              0
(PID.TID 0000.0001) //            Avg. Y spins =       0.00E+00
(PID.TID 0000.0001) // o Tile number: 000200
(PID.TID 0000.0001) //         No. X exchanges =              0
(PID.TID 0000.0001) //            Max. X spins =              0
(PID.TID 0000.0001) //            Min. X spins =     1000000000
(PID.TID 0000.0001) //          Total. X spins =              0
(PID.TID 0000.0001) //            Avg. X spins =       0.00E+00
(PID.TID 0000.0001) //         No. Y exchanges =              0
(PID.TID 0000.0001) //            Max. Y spins =              0
(PID.TID 0000.0001) //            Min. Y spins =     1000000000
(PID.TID 0000.0001) //          Total. Y spins =              0
(PID.TID 0000.0001) //            Avg. Y spins =       0.00E+00
(PID.TID 0000.0001) // o Tile number: 000201
(PID.TID 0000.0001) //         No. X exchanges =              0
(PID.TID 0000.0001) //            Max. X spins =              0
(PID.TID 0000.0001) //            Min. X spins =     1000000000
(PID.TID 0000.0001) //          Total. X spins =              0
(PID.TID 0000.0001) //            Avg. X spins =       0.00E+00
(PID.TID 0000.0001) //         No. Y exchanges =              0
(PID.TID 0000.0001) //            Max. Y spins =              0
(PID.TID 0000.0001) //            Min. Y spins =     1000000000
(PID.TID 0000.0001) //          Total. Y spins =              0
(PID.TID 0000.0001) //            Avg. Y spins =       0.00E+00
(PID.TID 0000.0001) // o Tile number: 000202
(PID.TID 0000.0001) //         No. X exchanges =              0
(PID.TID 0000.0001) //            Max. X spins =              0
(PID.TID 0000.0001) //            Min. X spins =     1000000000
(PID.TID 0000.0001) //          Total. X spins =              0
(PID.TID 0000.0001) //            Avg. X spins =       0.00E+00
(PID.TID 0000.0001) //         No. Y exchanges =              0
(PID.TID 0000.0001) //            Max. Y spins =              0
(PID.TID 0000.0001) //            Min. Y spins =     1000000000
(PID.TID 0000.0001) //          Total. Y spins =              0
(PID.TID 0000.0001) //            Avg. Y spins =       0.00E+00
(PID.TID 0000.0001) // o Tile number: 000203
(PID.TID 0000.0001) //         No. X exchanges =              0
(PID.TID 0000.0001) //            Max. X spins =              0
(PID.TID 0000.0001) //            Min. X spins =     1000000000
(PID.TID 0000.0001) //          Total. X spins =              0
(PID.TID 0000.0001) //            Avg. X spins =       0.00E+00
(PID.TID 0000.0001) //         No. Y exchanges =              0
(PID.TID 0000.0001) //            Max. Y spins =              0
(PID.TID 0000.0001) //            Min. Y spins =     1000000000
(PID.TID 0000.0001) //          Total. Y spins =              0
(PID.TID 0000.0001) //            Avg. Y spins =       0.00E+00
(PID.TID 0000.0001) // o Tile number: 000204
(PID.TID 0000.0001) //         No. X exchanges =              0
(PID.TID 0000.0001) //            Max. X spins =              0
(PID.TID 0000.0001) //            Min. X spins =     1000000000
(PID.TID 0000.0001) //          Total. X spins =              0
(PID.TID 0000.0001) //            Avg. X spins =       0.00E+00
(PID.TID 0000.0001) //         No. Y exchanges =              0
(PID.TID 0000.0001) //            Max. Y spins =              0
(PID.TID 0000.0001) //            Min. Y spins =     1000000000
(PID.TID 0000.0001) //          Total. Y spins =              0
(PID.TID 0000.0001) //            Avg. Y spins =       0.00E+00
(PID.TID 0000.0001) // o Tile number: 000205
(PID.TID 0000.0001) //         No. X exchanges =              0
(PID.TID 0000.0001) //            Max. X spins =              0
(PID.TID 0000.0001) //            Min. X spins =     1000000000
(PID.TID 0000.0001) //          Total. X spins =              0
(PID.TID 0000.0001) //            Avg. X spins =       0.00E+00
(PID.TID 0000.0001) //         No. Y exchanges =              0
(PID.TID 0000.0001) //            Max. Y spins =              0
(PID.TID 0000.0001) //            Min. Y spins =     1000000000
(PID.TID 0000.0001) //          Total. Y spins =              0
(PID.TID 0000.0001) //            Avg. Y spins =       0.00E+00
(PID.TID 0000.0001) // o Tile number: 000206
(PID.TID 0000.0001) //         No. X exchanges =              0
(PID.TID 0000.0001) //            Max. X spins =              0
(PID.TID 0000.0001) //            Min. X spins =     1000000000
(PID.TID 0000.0001) //          Total. X spins =              0
(PID.TID 0000.0001) //            Avg. X spins =       0.00E+00
(PID.TID 0000.0001) //         No. Y exchanges =              0
(PID.TID 0000.0001) //            Max. Y spins =              0
(PID.TID 0000.0001) //            Min. Y spins =     1000000000
(PID.TID 0000.0001) //          Total. Y spins =              0
(PID.TID 0000.0001) //            Avg. Y spins =       0.00E+00
(PID.TID 0000.0001) // o Tile number: 000207
(PID.TID 0000.0001) //         No. X exchanges =              0
(PID.TID 0000.0001) //            Max. X spins =              0
(PID.TID 0000.0001) //            Min. X spins =     1000000000
(PID.TID 0000.0001) //          Total. X spins =              0
(PID.TID 0000.0001) //            Avg. X spins =       0.00E+00
(PID.TID 0000.0001) //         No. Y exchanges =              0
(PID.TID 0000.0001) //            Max. Y spins =              0
(PID.TID 0000.0001) //            Min. Y spins =     1000000000
(PID.TID 0000.0001) //          Total. Y spins =              0
(PID.TID 0000.0001) //            Avg. Y spins =       0.00E+00
(PID.TID 0000.0001) // o Tile number: 000208
(PID.TID 0000.0001) //         No. X exchanges =              0
(PID.TID 0000.0001) //            Max. X spins =              0
(PID.TID 0000.0001) //            Min. X spins =     1000000000
(PID.TID 0000.0001) //          Total. X spins =              0
(PID.TID 0000.0001) //            Avg. X spins =       0.00E+00
(PID.TID 0000.0001) //         No. Y exchanges =              0
(PID.TID 0000.0001) //            Max. Y spins =              0
(PID.TID 0000.0001) //            Min. Y spins =     1000000000
(PID.TID 0000.0001) //          Total. Y spins =              0
(PID.TID 0000.0001) //            Avg. Y spins =       0.00E+00
(PID.TID 0000.0001) // o Tile number: 000209
(PID.TID 0000.0001) //         No. X exchanges =              0
(PID.TID 0000.0001) //            Max. X spins =              0
(PID.TID 0000.0001) //            Min. X spins =     1000000000
(PID.TID 0000.0001) //          Total. X spins =              0
(PID.TID 0000.0001) //            Avg. X spins =       0.00E+00
(PID.TID 0000.0001) //         No. Y exchanges =              0
(PID.TID 0000.0001) //            Max. Y spins =              0
(PID.TID 0000.0001) //            Min. Y spins =     1000000000
(PID.TID 0000.0001) //          Total. Y spins =              0
(PID.TID 0000.0001) //            Avg. Y spins =       0.00E+00
(PID.TID 0000.0001) // o Tile number: 000210
(PID.TID 0000.0001) //         No. X exchanges =              0
(PID.TID 0000.0001) //            Max. X spins =              0
(PID.TID 0000.0001) //            Min. X spins =     1000000000
(PID.TID 0000.0001) //          Total. X spins =              0
(PID.TID 0000.0001) //            Avg. X spins =       0.00E+00
(PID.TID 0000.0001) //         No. Y exchanges =              0
(PID.TID 0000.0001) //            Max. Y spins =              0
(PID.TID 0000.0001) //            Min. Y spins =     1000000000
(PID.TID 0000.0001) //          Total. Y spins =              0
(PID.TID 0000.0001) //            Avg. Y spins =       0.00E+00
(PID.TID 0000.0001) // o Tile number: 000211
(PID.TID 0000.0001) //         No. X exchanges =              0
(PID.TID 0000.0001) //            Max. X spins =              0
(PID.TID 0000.0001) //            Min. X spins =     1000000000
(PID.TID 0000.0001) //          Total. X spins =              0
(PID.TID 0000.0001) //            Avg. X spins =       0.00E+00
(PID.TID 0000.0001) //         No. Y exchanges =              0
(PID.TID 0000.0001) //            Max. Y spins =              0
(PID.TID 0000.0001) //            Min. Y spins =     1000000000
(PID.TID 0000.0001) //          Total. Y spins =              0
(PID.TID 0000.0001) //            Avg. Y spins =       0.00E+00
(PID.TID 0000.0001) // o Tile number: 000212
(PID.TID 0000.0001) //         No. X exchanges =              0
(PID.TID 0000.0001) //            Max. X spins =              0
(PID.TID 0000.0001) //            Min. X spins =     1000000000
(PID.TID 0000.0001) //          Total. X spins =              0
(PID.TID 0000.0001) //            Avg. X spins =       0.00E+00
(PID.TID 0000.0001) //         No. Y exchanges =              0
(PID.TID 0000.0001) //            Max. Y spins =              0
(PID.TID 0000.0001) //            Min. Y spins =     1000000000
(PID.TID 0000.0001) //          Total. Y spins =              0
(PID.TID 0000.0001) //            Avg. Y spins =       0.00E+00
(PID.TID 0000.0001) // o Tile number: 000213
(PID.TID 0000.0001) //         No. X exchanges =              0
(PID.TID 0000.0001) //            Max. X spins =              0
(PID.TID 0000.0001) //            Min. X spins =     1000000000
(PID.TID 0000.0001) //          Total. X spins =              0
(PID.TID 0000.0001) //            Avg. X spins =       0.00E+00
(PID.TID 0000.0001) //         No. Y exchanges =              0
(PID.TID 0000.0001) //            Max. Y spins =              0
(PID.TID 0000.0001) //            Min. Y spins =     1000000000
(PID.TID 0000.0001) //          Total. Y spins =              0
(PID.TID 0000.0001) //            Avg. Y spins =       0.00E+00
(PID.TID 0000.0001) // o Tile number: 000214
(PID.TID 0000.0001) //         No. X exchanges =              0
(PID.TID 0000.0001) //            Max. X spins =              0
(PID.TID 0000.0001) //            Min. X spins =     1000000000
(PID.TID 0000.0001) //          Total. X spins =              0
(PID.TID 0000.0001) //            Avg. X spins =       0.00E+00
(PID.TID 0000.0001) //         No. Y exchanges =              0
(PID.TID 0000.0001) //            Max. Y spins =              0
(PID.TID 0000.0001) //            Min. Y spins =     1000000000
(PID.TID 0000.0001) //          Total. Y spins =              0
(PID.TID 0000.0001) //            Avg. Y spins =       0.00E+00
(PID.TID 0000.0001) // o Tile number: 000215
(PID.TID 0000.0001) //         No. X exchanges =              0
(PID.TID 0000.0001) //            Max. X spins =              0
(PID.TID 0000.0001) //            Min. X spins =     1000000000
(PID.TID 0000.0001) //          Total. X spins =              0
(PID.TID 0000.0001) //            Avg. X spins =       0.00E+00
(PID.TID 0000.0001) //         No. Y exchanges =              0
(PID.TID 0000.0001) //            Max. Y spins =              0
(PID.TID 0000.0001) //            Min. Y spins =     1000000000
(PID.TID 0000.0001) //          Total. Y spins =              0
(PID.TID 0000.0001) //            Avg. Y spins =       0.00E+00
(PID.TID 0000.0001) // o Tile number: 000216
(PID.TID 0000.0001) //         No. X exchanges =              0
(PID.TID 0000.0001) //            Max. X spins =              0
(PID.TID 0000.0001) //            Min. X spins =     1000000000
(PID.TID 0000.0001) //          Total. X spins =              0
(PID.TID 0000.0001) //            Avg. X spins =       0.00E+00
(PID.TID 0000.0001) //         No. Y exchanges =              0
(PID.TID 0000.0001) //            Max. Y spins =              0
(PID.TID 0000.0001) //            Min. Y spins =     1000000000
(PID.TID 0000.0001) //          Total. Y spins =              0
(PID.TID 0000.0001) //            Avg. Y spins =       0.00E+00
(PID.TID 0000.0001) // o Tile number: 000217
(PID.TID 0000.0001) //         No. X exchanges =              0
(PID.TID 0000.0001) //            Max. X spins =              0
(PID.TID 0000.0001) //            Min. X spins =     1000000000
(PID.TID 0000.0001) //          Total. X spins =              0
(PID.TID 0000.0001) //            Avg. X spins =       0.00E+00
(PID.TID 0000.0001) //         No. Y exchanges =              0
(PID.TID 0000.0001) //            Max. Y spins =              0
(PID.TID 0000.0001) //            Min. Y spins =     1000000000
(PID.TID 0000.0001) //          Total. Y spins =              0
(PID.TID 0000.0001) //            Avg. Y spins =       0.00E+00
(PID.TID 0000.0001) // o Tile number: 000218
(PID.TID 0000.0001) //         No. X exchanges =              0
(PID.TID 0000.0001) //            Max. X spins =              0
(PID.TID 0000.0001) //            Min. X spins =     1000000000
(PID.TID 0000.0001) //          Total. X spins =              0
(PID.TID 0000.0001) //            Avg. X spins =       0.00E+00
(PID.TID 0000.0001) //         No. Y exchanges =              0
(PID.TID 0000.0001) //            Max. Y spins =              0
(PID.TID 0000.0001) //            Min. Y spins =     1000000000
(PID.TID 0000.0001) //          Total. Y spins =              0
(PID.TID 0000.0001) //            Avg. Y spins =       0.00E+00
(PID.TID 0000.0001) // o Tile number: 000219
(PID.TID 0000.0001) //         No. X exchanges =              0
(PID.TID 0000.0001) //            Max. X spins =              0
(PID.TID 0000.0001) //            Min. X spins =     1000000000
(PID.TID 0000.0001) //          Total. X spins =              0
(PID.TID 0000.0001) //            Avg. X spins =       0.00E+00
(PID.TID 0000.0001) //         No. Y exchanges =              0
(PID.TID 0000.0001) //            Max. Y spins =              0
(PID.TID 0000.0001) //            Min. Y spins =     1000000000
(PID.TID 0000.0001) //          Total. Y spins =              0
(PID.TID 0000.0001) //            Avg. Y spins =       0.00E+00
(PID.TID 0000.0001) // o Tile number: 000220
(PID.TID 0000.0001) //         No. X exchanges =              0
(PID.TID 0000.0001) //            Max. X spins =              0
(PID.TID 0000.0001) //            Min. X spins =     1000000000
(PID.TID 0000.0001) //          Total. X spins =              0
(PID.TID 0000.0001) //            Avg. X spins =       0.00E+00
(PID.TID 0000.0001) //         No. Y exchanges =              0
(PID.TID 0000.0001) //            Max. Y spins =              0
(PID.TID 0000.0001) //            Min. Y spins =     1000000000
(PID.TID 0000.0001) //          Total. Y spins =              0
(PID.TID 0000.0001) //            Avg. Y spins =       0.00E+00
(PID.TID 0000.0001) // o Tile number: 000221
(PID.TID 0000.0001) //         No. X exchanges =              0
(PID.TID 0000.0001) //            Max. X spins =              0
(PID.TID 0000.0001) //            Min. X spins =     1000000000
(PID.TID 0000.0001) //          Total. X spins =              0
(PID.TID 0000.0001) //            Avg. X spins =       0.00E+00
(PID.TID 0000.0001) //         No. Y exchanges =              0
(PID.TID 0000.0001) //            Max. Y spins =              0
(PID.TID 0000.0001) //            Min. Y spins =     1000000000
(PID.TID 0000.0001) //          Total. Y spins =              0
(PID.TID 0000.0001) //            Avg. Y spins =       0.00E+00
(PID.TID 0000.0001) // o Tile number: 000222
(PID.TID 0000.0001) //         No. X exchanges =              0
(PID.TID 0000.0001) //            Max. X spins =              0
(PID.TID 0000.0001) //            Min. X spins =     1000000000
(PID.TID 0000.0001) //          Total. X spins =              0
(PID.TID 0000.0001) //            Avg. X spins =       0.00E+00
(PID.TID 0000.0001) //         No. Y exchanges =              0
(PID.TID 0000.0001) //            Max. Y spins =              0
(PID.TID 0000.0001) //            Min. Y spins =     1000000000
(PID.TID 0000.0001) //          Total. Y spins =              0
(PID.TID 0000.0001) //            Avg. Y spins =       0.00E+00
(PID.TID 0000.0001) // o Tile number: 000223
(PID.TID 0000.0001) //         No. X exchanges =              0
(PID.TID 0000.0001) //            Max. X spins =              0
(PID.TID 0000.0001) //            Min. X spins =     1000000000
(PID.TID 0000.0001) //          Total. X spins =              0
(PID.TID 0000.0001) //            Avg. X spins =       0.00E+00
(PID.TID 0000.0001) //         No. Y exchanges =              0
(PID.TID 0000.0001) //            Max. Y spins =              0
(PID.TID 0000.0001) //            Min. Y spins =     1000000000
(PID.TID 0000.0001) //          Total. Y spins =              0
(PID.TID 0000.0001) //            Avg. Y spins =       0.00E+00
(PID.TID 0000.0001) // o Tile number: 000224
(PID.TID 0000.0001) //         No. X exchanges =              0
(PID.TID 0000.0001) //            Max. X spins =              0
(PID.TID 0000.0001) //            Min. X spins =     1000000000
(PID.TID 0000.0001) //          Total. X spins =              0
(PID.TID 0000.0001) //            Avg. X spins =       0.00E+00
(PID.TID 0000.0001) //         No. Y exchanges =              0
(PID.TID 0000.0001) //            Max. Y spins =              0
(PID.TID 0000.0001) //            Min. Y spins =     1000000000
(PID.TID 0000.0001) //          Total. Y spins =              0
(PID.TID 0000.0001) //            Avg. Y spins =       0.00E+00
(PID.TID 0000.0001) // o Tile number: 000225
(PID.TID 0000.0001) //         No. X exchanges =              0
(PID.TID 0000.0001) //            Max. X spins =              0
(PID.TID 0000.0001) //            Min. X spins =     1000000000
(PID.TID 0000.0001) //          Total. X spins =              0
(PID.TID 0000.0001) //            Avg. X spins =       0.00E+00
(PID.TID 0000.0001) //         No. Y exchanges =              0
(PID.TID 0000.0001) //            Max. Y spins =              0
(PID.TID 0000.0001) //            Min. Y spins =     1000000000
(PID.TID 0000.0001) //          Total. Y spins =              0
(PID.TID 0000.0001) //            Avg. Y spins =       0.00E+00
(PID.TID 0000.0001) // o Tile number: 000226
(PID.TID 0000.0001) //         No. X exchanges =              0
(PID.TID 0000.0001) //            Max. X spins =              0
(PID.TID 0000.0001) //            Min. X spins =     1000000000
(PID.TID 0000.0001) //          Total. X spins =              0
(PID.TID 0000.0001) //            Avg. X spins =       0.00E+00
(PID.TID 0000.0001) //         No. Y exchanges =              0
(PID.TID 0000.0001) //            Max. Y spins =              0
(PID.TID 0000.0001) //            Min. Y spins =     1000000000
(PID.TID 0000.0001) //          Total. Y spins =              0
(PID.TID 0000.0001) //            Avg. Y spins =       0.00E+00
(PID.TID 0000.0001) // o Tile number: 000227
(PID.TID 0000.0001) //         No. X exchanges =              0
(PID.TID 0000.0001) //            Max. X spins =              0
(PID.TID 0000.0001) //            Min. X spins =     1000000000
(PID.TID 0000.0001) //          Total. X spins =              0
(PID.TID 0000.0001) //            Avg. X spins =       0.00E+00
(PID.TID 0000.0001) //         No. Y exchanges =              0
(PID.TID 0000.0001) //            Max. Y spins =              0
(PID.TID 0000.0001) //            Min. Y spins =     1000000000
(PID.TID 0000.0001) //          Total. Y spins =              0
(PID.TID 0000.0001) //            Avg. Y spins =       0.00E+00
(PID.TID 0000.0001) // o Tile number: 000228
(PID.TID 0000.0001) //         No. X exchanges =              0
(PID.TID 0000.0001) //            Max. X spins =              0
(PID.TID 0000.0001) //            Min. X spins =     1000000000
(PID.TID 0000.0001) //          Total. X spins =              0
(PID.TID 0000.0001) //            Avg. X spins =       0.00E+00
(PID.TID 0000.0001) //         No. Y exchanges =              0
(PID.TID 0000.0001) //            Max. Y spins =              0
(PID.TID 0000.0001) //            Min. Y spins =     1000000000
(PID.TID 0000.0001) //          Total. Y spins =              0
(PID.TID 0000.0001) //            Avg. Y spins =       0.00E+00
(PID.TID 0000.0001) // o Tile number: 000229
(PID.TID 0000.0001) //         No. X exchanges =              0
(PID.TID 0000.0001) //            Max. X spins =              0
(PID.TID 0000.0001) //            Min. X spins =     1000000000
(PID.TID 0000.0001) //          Total. X spins =              0
(PID.TID 0000.0001) //            Avg. X spins =       0.00E+00
(PID.TID 0000.0001) //         No. Y exchanges =              0
(PID.TID 0000.0001) //            Max. Y spins =              0
(PID.TID 0000.0001) //            Min. Y spins =     1000000000
(PID.TID 0000.0001) //          Total. Y spins =              0
(PID.TID 0000.0001) //            Avg. Y spins =       0.00E+00
(PID.TID 0000.0001) // o Tile number: 000230
(PID.TID 0000.0001) //         No. X exchanges =              0
(PID.TID 0000.0001) //            Max. X spins =              0
(PID.TID 0000.0001) //            Min. X spins =     1000000000
(PID.TID 0000.0001) //          Total. X spins =              0
(PID.TID 0000.0001) //            Avg. X spins =       0.00E+00
(PID.TID 0000.0001) //         No. Y exchanges =              0
(PID.TID 0000.0001) //            Max. Y spins =              0
(PID.TID 0000.0001) //            Min. Y spins =     1000000000
(PID.TID 0000.0001) //          Total. Y spins =              0
(PID.TID 0000.0001) //            Avg. Y spins =       0.00E+00
(PID.TID 0000.0001) // o Tile number: 000231
(PID.TID 0000.0001) //         No. X exchanges =              0
(PID.TID 0000.0001) //            Max. X spins =              0
(PID.TID 0000.0001) //            Min. X spins =     1000000000
(PID.TID 0000.0001) //          Total. X spins =              0
(PID.TID 0000.0001) //            Avg. X spins =       0.00E+00
(PID.TID 0000.0001) //         No. Y exchanges =              0
(PID.TID 0000.0001) //            Max. Y spins =              0
(PID.TID 0000.0001) //            Min. Y spins =     1000000000
(PID.TID 0000.0001) //          Total. Y spins =              0
(PID.TID 0000.0001) //            Avg. Y spins =       0.00E+00
(PID.TID 0000.0001) // o Tile number: 000232
(PID.TID 0000.0001) //         No. X exchanges =              0
(PID.TID 0000.0001) //            Max. X spins =              0
(PID.TID 0000.0001) //            Min. X spins =     1000000000
(PID.TID 0000.0001) //          Total. X spins =              0
(PID.TID 0000.0001) //            Avg. X spins =       0.00E+00
(PID.TID 0000.0001) //         No. Y exchanges =              0
(PID.TID 0000.0001) //            Max. Y spins =              0
(PID.TID 0000.0001) //            Min. Y spins =     1000000000
(PID.TID 0000.0001) //          Total. Y spins =              0
(PID.TID 0000.0001) //            Avg. Y spins =       0.00E+00
(PID.TID 0000.0001) // o Tile number: 000233
(PID.TID 0000.0001) //         No. X exchanges =              0
(PID.TID 0000.0001) //            Max. X spins =              0
(PID.TID 0000.0001) //            Min. X spins =     1000000000
(PID.TID 0000.0001) //          Total. X spins =              0
(PID.TID 0000.0001) //            Avg. X spins =       0.00E+00
(PID.TID 0000.0001) //         No. Y exchanges =              0
(PID.TID 0000.0001) //            Max. Y spins =              0
(PID.TID 0000.0001) //            Min. Y spins =     1000000000
(PID.TID 0000.0001) //          Total. Y spins =              0
(PID.TID 0000.0001) //            Avg. Y spins =       0.00E+00
(PID.TID 0000.0001) // o Tile number: 000234
(PID.TID 0000.0001) //         No. X exchanges =              0
(PID.TID 0000.0001) //            Max. X spins =              0
(PID.TID 0000.0001) //            Min. X spins =     1000000000
(PID.TID 0000.0001) //          Total. X spins =              0
(PID.TID 0000.0001) //            Avg. X spins =       0.00E+00
(PID.TID 0000.0001) //         No. Y exchanges =              0
(PID.TID 0000.0001) //            Max. Y spins =              0
(PID.TID 0000.0001) //            Min. Y spins =     1000000000
(PID.TID 0000.0001) //          Total. Y spins =              0
(PID.TID 0000.0001) //            Avg. Y spins =       0.00E+00
(PID.TID 0000.0001) // o Tile number: 000235
(PID.TID 0000.0001) //         No. X exchanges =              0
(PID.TID 0000.0001) //            Max. X spins =              0
(PID.TID 0000.0001) //            Min. X spins =     1000000000
(PID.TID 0000.0001) //          Total. X spins =              0
(PID.TID 0000.0001) //            Avg. X spins =       0.00E+00
(PID.TID 0000.0001) //         No. Y exchanges =              0
(PID.TID 0000.0001) //            Max. Y spins =              0
(PID.TID 0000.0001) //            Min. Y spins =     1000000000
(PID.TID 0000.0001) //          Total. Y spins =              0
(PID.TID 0000.0001) //            Avg. Y spins =       0.00E+00
(PID.TID 0000.0001) // o Tile number: 000236
(PID.TID 0000.0001) //         No. X exchanges =              0
(PID.TID 0000.0001) //            Max. X spins =              0
(PID.TID 0000.0001) //            Min. X spins =     1000000000
(PID.TID 0000.0001) //          Total. X spins =              0
(PID.TID 0000.0001) //            Avg. X spins =       0.00E+00
(PID.TID 0000.0001) //         No. Y exchanges =              0
(PID.TID 0000.0001) //            Max. Y spins =              0
(PID.TID 0000.0001) //            Min. Y spins =     1000000000
(PID.TID 0000.0001) //          Total. Y spins =              0
(PID.TID 0000.0001) //            Avg. Y spins =       0.00E+00
(PID.TID 0000.0001) // o Tile number: 000237
(PID.TID 0000.0001) //         No. X exchanges =              0
(PID.TID 0000.0001) //            Max. X spins =              0
(PID.TID 0000.0001) //            Min. X spins =     1000000000
(PID.TID 0000.0001) //          Total. X spins =              0
(PID.TID 0000.0001) //            Avg. X spins =       0.00E+00
(PID.TID 0000.0001) //         No. Y exchanges =              0
(PID.TID 0000.0001) //            Max. Y spins =              0
(PID.TID 0000.0001) //            Min. Y spins =     1000000000
(PID.TID 0000.0001) //          Total. Y spins =              0
(PID.TID 0000.0001) //            Avg. Y spins =       0.00E+00
(PID.TID 0000.0001) // o Tile number: 000238
(PID.TID 0000.0001) //         No. X exchanges =              0
(PID.TID 0000.0001) //            Max. X spins =              0
(PID.TID 0000.0001) //            Min. X spins =     1000000000
(PID.TID 0000.0001) //          Total. X spins =              0
(PID.TID 0000.0001) //            Avg. X spins =       0.00E+00
(PID.TID 0000.0001) //         No. Y exchanges =              0
(PID.TID 0000.0001) //            Max. Y spins =              0
(PID.TID 0000.0001) //            Min. Y spins =     1000000000
(PID.TID 0000.0001) //          Total. Y spins =              0
(PID.TID 0000.0001) //            Avg. Y spins =       0.00E+00
(PID.TID 0000.0001) // o Tile number: 000239
(PID.TID 0000.0001) //         No. X exchanges =              0
(PID.TID 0000.0001) //            Max. X spins =              0
(PID.TID 0000.0001) //            Min. X spins =     1000000000
(PID.TID 0000.0001) //          Total. X spins =              0
(PID.TID 0000.0001) //            Avg. X spins =       0.00E+00
(PID.TID 0000.0001) //         No. Y exchanges =              0
(PID.TID 0000.0001) //            Max. Y spins =              0
(PID.TID 0000.0001) //            Min. Y spins =     1000000000
(PID.TID 0000.0001) //          Total. Y spins =              0
(PID.TID 0000.0001) //            Avg. Y spins =       0.00E+00
(PID.TID 0000.0001) // o Tile number: 000240
(PID.TID 0000.0001) //         No. X exchanges =              0
(PID.TID 0000.0001) //            Max. X spins =              0
(PID.TID 0000.0001) //            Min. X spins =     1000000000
(PID.TID 0000.0001) //          Total. X spins =              0
(PID.TID 0000.0001) //            Avg. X spins =       0.00E+00
(PID.TID 0000.0001) //         No. Y exchanges =              0
(PID.TID 0000.0001) //            Max. Y spins =              0
(PID.TID 0000.0001) //            Min. Y spins =     1000000000
(PID.TID 0000.0001) //          Total. Y spins =              0
(PID.TID 0000.0001) //            Avg. Y spins =       0.00E+00
(PID.TID 0000.0001) // o Tile number: 000241
(PID.TID 0000.0001) //         No. X exchanges =              0
(PID.TID 0000.0001) //            Max. X spins =              0
(PID.TID 0000.0001) //            Min. X spins =     1000000000
(PID.TID 0000.0001) //          Total. X spins =              0
(PID.TID 0000.0001) //            Avg. X spins =       0.00E+00
(PID.TID 0000.0001) //         No. Y exchanges =              0
(PID.TID 0000.0001) //            Max. Y spins =              0
(PID.TID 0000.0001) //            Min. Y spins =     1000000000
(PID.TID 0000.0001) //          Total. Y spins =              0
(PID.TID 0000.0001) //            Avg. Y spins =       0.00E+00
(PID.TID 0000.0001) // o Tile number: 000242
(PID.TID 0000.0001) //         No. X exchanges =              0
(PID.TID 0000.0001) //            Max. X spins =              0
(PID.TID 0000.0001) //            Min. X spins =     1000000000
(PID.TID 0000.0001) //          Total. X spins =              0
(PID.TID 0000.0001) //            Avg. X spins =       0.00E+00
(PID.TID 0000.0001) //         No. Y exchanges =              0
(PID.TID 0000.0001) //            Max. Y spins =              0
(PID.TID 0000.0001) //            Min. Y spins =     1000000000
(PID.TID 0000.0001) //          Total. Y spins =              0
(PID.TID 0000.0001) //            Avg. Y spins =       0.00E+00
(PID.TID 0000.0001) // o Tile number: 000243
(PID.TID 0000.0001) //         No. X exchanges =              0
(PID.TID 0000.0001) //            Max. X spins =              0
(PID.TID 0000.0001) //            Min. X spins =     1000000000
(PID.TID 0000.0001) //          Total. X spins =              0
(PID.TID 0000.0001) //            Avg. X spins =       0.00E+00
(PID.TID 0000.0001) //         No. Y exchanges =              0
(PID.TID 0000.0001) //            Max. Y spins =              0
(PID.TID 0000.0001) //            Min. Y spins =     1000000000
(PID.TID 0000.0001) //          Total. Y spins =              0
(PID.TID 0000.0001) //            Avg. Y spins =       0.00E+00
(PID.TID 0000.0001) // o Tile number: 000244
(PID.TID 0000.0001) //         No. X exchanges =              0
(PID.TID 0000.0001) //            Max. X spins =              0
(PID.TID 0000.0001) //            Min. X spins =     1000000000
(PID.TID 0000.0001) //          Total. X spins =              0
(PID.TID 0000.0001) //            Avg. X spins =       0.00E+00
(PID.TID 0000.0001) //         No. Y exchanges =              0
(PID.TID 0000.0001) //            Max. Y spins =              0
(PID.TID 0000.0001) //            Min. Y spins =     1000000000
(PID.TID 0000.0001) //          Total. Y spins =              0
(PID.TID 0000.0001) //            Avg. Y spins =       0.00E+00
(PID.TID 0000.0001) // o Tile number: 000245
(PID.TID 0000.0001) //         No. X exchanges =              0
(PID.TID 0000.0001) //            Max. X spins =              0
(PID.TID 0000.0001) //            Min. X spins =     1000000000
(PID.TID 0000.0001) //          Total. X spins =              0
(PID.TID 0000.0001) //            Avg. X spins =       0.00E+00
(PID.TID 0000.0001) //         No. Y exchanges =              0
(PID.TID 0000.0001) //            Max. Y spins =              0
(PID.TID 0000.0001) //            Min. Y spins =     1000000000
(PID.TID 0000.0001) //          Total. Y spins =              0
(PID.TID 0000.0001) //            Avg. Y spins =       0.00E+00
(PID.TID 0000.0001) // o Tile number: 000246
(PID.TID 0000.0001) //         No. X exchanges =              0
(PID.TID 0000.0001) //            Max. X spins =              0
(PID.TID 0000.0001) //            Min. X spins =     1000000000
(PID.TID 0000.0001) //          Total. X spins =              0
(PID.TID 0000.0001) //            Avg. X spins =       0.00E+00
(PID.TID 0000.0001) //         No. Y exchanges =              0
(PID.TID 0000.0001) //            Max. Y spins =              0
(PID.TID 0000.0001) //            Min. Y spins =     1000000000
(PID.TID 0000.0001) //          Total. Y spins =              0
(PID.TID 0000.0001) //            Avg. Y spins =       0.00E+00
(PID.TID 0000.0001) // o Tile number: 000247
(PID.TID 0000.0001) //         No. X exchanges =              0
(PID.TID 0000.0001) //            Max. X spins =              0
(PID.TID 0000.0001) //            Min. X spins =     1000000000
(PID.TID 0000.0001) //          Total. X spins =              0
(PID.TID 0000.0001) //            Avg. X spins =       0.00E+00
(PID.TID 0000.0001) //         No. Y exchanges =              0
(PID.TID 0000.0001) //            Max. Y spins =              0
(PID.TID 0000.0001) //            Min. Y spins =     1000000000
(PID.TID 0000.0001) //          Total. Y spins =              0
(PID.TID 0000.0001) //            Avg. Y spins =       0.00E+00
(PID.TID 0000.0001) // o Tile number: 000248
(PID.TID 0000.0001) //         No. X exchanges =              0
(PID.TID 0000.0001) //            Max. X spins =              0
(PID.TID 0000.0001) //            Min. X spins =     1000000000
(PID.TID 0000.0001) //          Total. X spins =              0
(PID.TID 0000.0001) //            Avg. X spins =       0.00E+00
(PID.TID 0000.0001) //         No. Y exchanges =              0
(PID.TID 0000.0001) //            Max. Y spins =              0
(PID.TID 0000.0001) //            Min. Y spins =     1000000000
(PID.TID 0000.0001) //          Total. Y spins =              0
(PID.TID 0000.0001) //            Avg. Y spins =       0.00E+00
(PID.TID 0000.0001) // o Tile number: 000249
(PID.TID 0000.0001) //         No. X exchanges =              0
(PID.TID 0000.0001) //            Max. X spins =              0
(PID.TID 0000.0001) //            Min. X spins =     1000000000
(PID.TID 0000.0001) //          Total. X spins =              0
(PID.TID 0000.0001) //            Avg. X spins =       0.00E+00
(PID.TID 0000.0001) //         No. Y exchanges =              0
(PID.TID 0000.0001) //            Max. Y spins =              0
(PID.TID 0000.0001) //            Min. Y spins =     1000000000
(PID.TID 0000.0001) //          Total. Y spins =              0
(PID.TID 0000.0001) //            Avg. Y spins =       0.00E+00
(PID.TID 0000.0001) // o Tile number: 000250
(PID.TID 0000.0001) //         No. X exchanges =              0
(PID.TID 0000.0001) //            Max. X spins =              0
(PID.TID 0000.0001) //            Min. X spins =     1000000000
(PID.TID 0000.0001) //          Total. X spins =              0
(PID.TID 0000.0001) //            Avg. X spins =       0.00E+00
(PID.TID 0000.0001) //         No. Y exchanges =              0
(PID.TID 0000.0001) //            Max. Y spins =              0
(PID.TID 0000.0001) //            Min. Y spins =     1000000000
(PID.TID 0000.0001) //          Total. Y spins =              0
(PID.TID 0000.0001) //            Avg. Y spins =       0.00E+00
(PID.TID 0000.0001) // o Tile number: 000251
(PID.TID 0000.0001) //         No. X exchanges =              0
(PID.TID 0000.0001) //            Max. X spins =              0
(PID.TID 0000.0001) //            Min. X spins =     1000000000
(PID.TID 0000.0001) //          Total. X spins =              0
(PID.TID 0000.0001) //            Avg. X spins =       0.00E+00
(PID.TID 0000.0001) //         No. Y exchanges =              0
(PID.TID 0000.0001) //            Max. Y spins =              0
(PID.TID 0000.0001) //            Min. Y spins =     1000000000
(PID.TID 0000.0001) //          Total. Y spins =              0
(PID.TID 0000.0001) //            Avg. Y spins =       0.00E+00
(PID.TID 0000.0001) // o Tile number: 000252
(PID.TID 0000.0001) //         No. X exchanges =              0
(PID.TID 0000.0001) //            Max. X spins =              0
(PID.TID 0000.0001) //            Min. X spins =     1000000000
(PID.TID 0000.0001) //          Total. X spins =              0
(PID.TID 0000.0001) //            Avg. X spins =       0.00E+00
(PID.TID 0000.0001) //         No. Y exchanges =              0
(PID.TID 0000.0001) //            Max. Y spins =              0
(PID.TID 0000.0001) //            Min. Y spins =     1000000000
(PID.TID 0000.0001) //          Total. Y spins =              0
(PID.TID 0000.0001) //            Avg. Y spins =       0.00E+00
(PID.TID 0000.0001) // o Tile number: 000253
(PID.TID 0000.0001) //         No. X exchanges =              0
(PID.TID 0000.0001) //            Max. X spins =              0
(PID.TID 0000.0001) //            Min. X spins =     1000000000
(PID.TID 0000.0001) //          Total. X spins =              0
(PID.TID 0000.0001) //            Avg. X spins =       0.00E+00
(PID.TID 0000.0001) //         No. Y exchanges =              0
(PID.TID 0000.0001) //            Max. Y spins =              0
(PID.TID 0000.0001) //            Min. Y spins =     1000000000
(PID.TID 0000.0001) //          Total. Y spins =              0
(PID.TID 0000.0001) //            Avg. Y spins =       0.00E+00
(PID.TID 0000.0001) // o Tile number: 000254
(PID.TID 0000.0001) //         No. X exchanges =              0
(PID.TID 0000.0001) //            Max. X spins =              0
(PID.TID 0000.0001) //            Min. X spins =     1000000000
(PID.TID 0000.0001) //          Total. X spins =              0
(PID.TID 0000.0001) //            Avg. X spins =       0.00E+00
(PID.TID 0000.0001) //         No. Y exchanges =              0
(PID.TID 0000.0001) //            Max. Y spins =              0
(PID.TID 0000.0001) //            Min. Y spins =     1000000000
(PID.TID 0000.0001) //          Total. Y spins =              0
(PID.TID 0000.0001) //            Avg. Y spins =       0.00E+00
(PID.TID 0000.0001) // o Tile number: 000255
(PID.TID 0000.0001) //         No. X exchanges =              0
(PID.TID 0000.0001) //            Max. X spins =              0
(PID.TID 0000.0001) //            Min. X spins =     1000000000
(PID.TID 0000.0001) //          Total. X spins =              0
(PID.TID 0000.0001) //            Avg. X spins =       0.00E+00
(PID.TID 0000.0001) //         No. Y exchanges =              0
(PID.TID 0000.0001) //            Max. Y spins =              0
(PID.TID 0000.0001) //            Min. Y spins =     1000000000
(PID.TID 0000.0001) //          Total. Y spins =              0
(PID.TID 0000.0001) //            Avg. Y spins =       0.00E+00
(PID.TID 0000.0001) // o Tile number: 000256
(PID.TID 0000.0001) //         No. X exchanges =              0
(PID.TID 0000.0001) //            Max. X spins =              0
(PID.TID 0000.0001) //            Min. X spins =     1000000000
(PID.TID 0000.0001) //          Total. X spins =              0
(PID.TID 0000.0001) //            Avg. X spins =       0.00E+00
(PID.TID 0000.0001) //         No. Y exchanges =              0
(PID.TID 0000.0001) //            Max. Y spins =              0
(PID.TID 0000.0001) //            Min. Y spins =     1000000000
(PID.TID 0000.0001) //          Total. Y spins =              0
(PID.TID 0000.0001) //            Avg. Y spins =       0.00E+00
(PID.TID 0000.0001) // o Thread number: 000001
(PID.TID 0000.0001) //            No. barriers =         274616
(PID.TID 0000.0001) //      Max. barrier spins =              1
(PID.TID 0000.0001) //      Min. barrier spins =              1
(PID.TID 0000.0001) //     Total barrier spins =         274616
(PID.TID 0000.0001) //      Avg. barrier spins =       1.00E+00
PROGRAM MAIN: Execution ended Normally
