(PID.TID 0000.0001) 
(PID.TID 0000.0001) // ======================================================
(PID.TID 0000.0001) //                      MITgcm UV
(PID.TID 0000.0001) //                      =========
(PID.TID 0000.0001) // ======================================================
(PID.TID 0000.0001) // execution environment starting up...
(PID.TID 0000.0001) 
(PID.TID 0000.0001) // MITgcmUV version:  checkpoint68z
(PID.TID 0000.0001) // Build user:        estebancruz
(PID.TID 0000.0001) // Build host:        Estebanovich-MacBook-Pro.local
(PID.TID 0000.0001) // Build date:        Tue Oct  8 18:04:20 PDT 2024
(PID.TID 0000.0001) 
(PID.TID 0000.0001) // =======================================================
(PID.TID 0000.0001) // Execution Environment parameter file "eedata"
(PID.TID 0000.0001) // =======================================================
(PID.TID 0000.0001) ># Example "eedata" file
(PID.TID 0000.0001) ># Lines beginning "#" are comments
(PID.TID 0000.0001) >#  nTx      :: No. threads per process in X
(PID.TID 0000.0001) >#  nTy      :: No. threads per process in Y
(PID.TID 0000.0001) ># debugMode :: print debug msg (sequence of S/R calls)
(PID.TID 0000.0001) > &EEPARMS
(PID.TID 0000.0001) > nTx=1,
(PID.TID 0000.0001) > nTy=1,
(PID.TID 0000.0001) > /
(PID.TID 0000.0001) ># Note: Some systems use & as the namelist terminator (as shown here).
(PID.TID 0000.0001) >#       Other systems use a / character.
(PID.TID 0000.0001) 
(PID.TID 0000.0001) // =======================================================
(PID.TID 0000.0001) // Computational Grid Specification ( see files "SIZE.h" )
(PID.TID 0000.0001) //                                  ( and "eedata"       )
(PID.TID 0000.0001) // =======================================================
(PID.TID 0000.0001)      nPx =    1 ; /* No. processes in X */
(PID.TID 0000.0001)      nPy =    1 ; /* No. processes in Y */
(PID.TID 0000.0001)      nSx =   15 ; /* No. tiles in X per process */
(PID.TID 0000.0001)      nSy =   15 ; /* No. tiles in Y per process */
(PID.TID 0000.0001)      sNx =   16 ; /* Tile size in X */
(PID.TID 0000.0001)      sNy =   12 ; /* Tile size in Y */
(PID.TID 0000.0001)      OLx =    3 ; /* Tile overlap distance in X */
(PID.TID 0000.0001)      OLy =    3 ; /* Tile overlap distance in Y */
(PID.TID 0000.0001)      nTx =    1 ; /* No. threads in X per process */
(PID.TID 0000.0001)      nTy =    1 ; /* No. threads in Y per process */
(PID.TID 0000.0001)       Nr =   40 ; /* No. levels in the vertical   */
(PID.TID 0000.0001)       Nx =  240 ; /* Total domain size in X ( = nPx*nSx*sNx ) */
(PID.TID 0000.0001)       Ny =  180 ; /* Total domain size in Y ( = nPy*nSy*sNy ) */
(PID.TID 0000.0001)   nTiles =  225 ; /* Total no. tiles per process ( = nSx*nSy ) */
(PID.TID 0000.0001)   nProcs =    1 ; /* Total no. processes ( = nPx*nPy ) */
(PID.TID 0000.0001) nThreads =    1 ; /* Total no. threads per process ( = nTx*nTy ) */
(PID.TID 0000.0001) usingMPI =    F ; /* Flag used to control whether MPI is in use */
(PID.TID 0000.0001)                   /*  note: To execute a program with MPI calls */
(PID.TID 0000.0001)                   /*  it must be launched appropriately e.g     */
(PID.TID 0000.0001)                   /*  "mpirun -np 64 ......"                    */
(PID.TID 0000.0001) useCoupler=   F ; /* Flag used to control communications with   */
(PID.TID 0000.0001)                   /*  other model components, through a coupler */
(PID.TID 0000.0001) useNest2W_parent =    F ;/* Control 2-W Nesting comm */
(PID.TID 0000.0001) useNest2W_child  =    F ;/* Control 2-W Nesting comm */
(PID.TID 0000.0001) debugMode =    F ; /* print debug msg. (sequence of S/R calls)  */
(PID.TID 0000.0001) printMapIncludesZeros=    F ; /* print zeros in Std.Output maps */
(PID.TID 0000.0001) maxLengthPrt1D=   65 /* maxLength of 1D array printed to StdOut */
(PID.TID 0000.0001) 
(PID.TID 0000.0001) // ======================================================
(PID.TID 0000.0001) // Mapping of tiles to threads
(PID.TID 0000.0001) // ======================================================
(PID.TID 0000.0001) // -o- Thread   1, tiles (   1:  15,   1:  15)
(PID.TID 0000.0001) 
(PID.TID 0000.0001) // ======================================================
(PID.TID 0000.0001) // Tile <-> Tile connectvity table
(PID.TID 0000.0001) // ======================================================
(PID.TID 0000.0001) // Tile number: 000001 (process no. = 000000)
(PID.TID 0000.0001) //        WEST: Tile = 000015, Process = 000000, Comm = put
(PID.TID 0000.0001) //                bi = 000015, bj = 000001
(PID.TID 0000.0001) //        EAST: Tile = 000002, Process = 000000, Comm = put
(PID.TID 0000.0001) //                bi = 000002, bj = 000001
(PID.TID 0000.0001) //       SOUTH: Tile = 000211, Process = 000000, Comm = put
(PID.TID 0000.0001) //                bi = 000001, bj = 000015
(PID.TID 0000.0001) //       NORTH: Tile = 000016, Process = 000000, Comm = put
(PID.TID 0000.0001) //                bi = 000001, bj = 000002
(PID.TID 0000.0001) // Tile number: 000002 (process no. = 000000)
(PID.TID 0000.0001) //        WEST: Tile = 000001, Process = 000000, Comm = put
(PID.TID 0000.0001) //                bi = 000001, bj = 000001
(PID.TID 0000.0001) //        EAST: Tile = 000003, Process = 000000, Comm = put
(PID.TID 0000.0001) //                bi = 000003, bj = 000001
(PID.TID 0000.0001) //       SOUTH: Tile = 000212, Process = 000000, Comm = put
(PID.TID 0000.0001) //                bi = 000002, bj = 000015
(PID.TID 0000.0001) //       NORTH: Tile = 000017, Process = 000000, Comm = put
(PID.TID 0000.0001) //                bi = 000002, bj = 000002
(PID.TID 0000.0001) // Tile number: 000003 (process no. = 000000)
(PID.TID 0000.0001) //        WEST: Tile = 000002, Process = 000000, Comm = put
(PID.TID 0000.0001) //                bi = 000002, bj = 000001
(PID.TID 0000.0001) //        EAST: Tile = 000004, Process = 000000, Comm = put
(PID.TID 0000.0001) //                bi = 000004, bj = 000001
(PID.TID 0000.0001) //       SOUTH: Tile = 000213, Process = 000000, Comm = put
(PID.TID 0000.0001) //                bi = 000003, bj = 000015
(PID.TID 0000.0001) //       NORTH: Tile = 000018, Process = 000000, Comm = put
(PID.TID 0000.0001) //                bi = 000003, bj = 000002
(PID.TID 0000.0001) // Tile number: 000004 (process no. = 000000)
(PID.TID 0000.0001) //        WEST: Tile = 000003, Process = 000000, Comm = put
(PID.TID 0000.0001) //                bi = 000003, bj = 000001
(PID.TID 0000.0001) //        EAST: Tile = 000005, Process = 000000, Comm = put
(PID.TID 0000.0001) //                bi = 000005, bj = 000001
(PID.TID 0000.0001) //       SOUTH: Tile = 000214, Process = 000000, Comm = put
(PID.TID 0000.0001) //                bi = 000004, bj = 000015
(PID.TID 0000.0001) //       NORTH: Tile = 000019, Process = 000000, Comm = put
(PID.TID 0000.0001) //                bi = 000004, bj = 000002
(PID.TID 0000.0001) // Tile number: 000005 (process no. = 000000)
(PID.TID 0000.0001) //        WEST: Tile = 000004, Process = 000000, Comm = put
(PID.TID 0000.0001) //                bi = 000004, bj = 000001
(PID.TID 0000.0001) //        EAST: Tile = 000006, Process = 000000, Comm = put
(PID.TID 0000.0001) //                bi = 000006, bj = 000001
(PID.TID 0000.0001) //       SOUTH: Tile = 000215, Process = 000000, Comm = put
(PID.TID 0000.0001) //                bi = 000005, bj = 000015
(PID.TID 0000.0001) //       NORTH: Tile = 000020, Process = 000000, Comm = put
(PID.TID 0000.0001) //                bi = 000005, bj = 000002
(PID.TID 0000.0001) // Tile number: 000006 (process no. = 000000)
(PID.TID 0000.0001) //        WEST: Tile = 000005, Process = 000000, Comm = put
(PID.TID 0000.0001) //                bi = 000005, bj = 000001
(PID.TID 0000.0001) //        EAST: Tile = 000007, Process = 000000, Comm = put
(PID.TID 0000.0001) //                bi = 000007, bj = 000001
(PID.TID 0000.0001) //       SOUTH: Tile = 000216, Process = 000000, Comm = put
(PID.TID 0000.0001) //                bi = 000006, bj = 000015
(PID.TID 0000.0001) //       NORTH: Tile = 000021, Process = 000000, Comm = put
(PID.TID 0000.0001) //                bi = 000006, bj = 000002
(PID.TID 0000.0001) // Tile number: 000007 (process no. = 000000)
(PID.TID 0000.0001) //        WEST: Tile = 000006, Process = 000000, Comm = put
(PID.TID 0000.0001) //                bi = 000006, bj = 000001
(PID.TID 0000.0001) //        EAST: Tile = 000008, Process = 000000, Comm = put
(PID.TID 0000.0001) //                bi = 000008, bj = 000001
(PID.TID 0000.0001) //       SOUTH: Tile = 000217, Process = 000000, Comm = put
(PID.TID 0000.0001) //                bi = 000007, bj = 000015
(PID.TID 0000.0001) //       NORTH: Tile = 000022, Process = 000000, Comm = put
(PID.TID 0000.0001) //                bi = 000007, bj = 000002
(PID.TID 0000.0001) // Tile number: 000008 (process no. = 000000)
(PID.TID 0000.0001) //        WEST: Tile = 000007, Process = 000000, Comm = put
(PID.TID 0000.0001) //                bi = 000007, bj = 000001
(PID.TID 0000.0001) //        EAST: Tile = 000009, Process = 000000, Comm = put
(PID.TID 0000.0001) //                bi = 000009, bj = 000001
(PID.TID 0000.0001) //       SOUTH: Tile = 000218, Process = 000000, Comm = put
(PID.TID 0000.0001) //                bi = 000008, bj = 000015
(PID.TID 0000.0001) //       NORTH: Tile = 000023, Process = 000000, Comm = put
(PID.TID 0000.0001) //                bi = 000008, bj = 000002
(PID.TID 0000.0001) // Tile number: 000009 (process no. = 000000)
(PID.TID 0000.0001) //        WEST: Tile = 000008, Process = 000000, Comm = put
(PID.TID 0000.0001) //                bi = 000008, bj = 000001
(PID.TID 0000.0001) //        EAST: Tile = 000010, Process = 000000, Comm = put
(PID.TID 0000.0001) //                bi = 000010, bj = 000001
(PID.TID 0000.0001) //       SOUTH: Tile = 000219, Process = 000000, Comm = put
(PID.TID 0000.0001) //                bi = 000009, bj = 000015
(PID.TID 0000.0001) //       NORTH: Tile = 000024, Process = 000000, Comm = put
(PID.TID 0000.0001) //                bi = 000009, bj = 000002
(PID.TID 0000.0001) // Tile number: 000010 (process no. = 000000)
(PID.TID 0000.0001) //        WEST: Tile = 000009, Process = 000000, Comm = put
(PID.TID 0000.0001) //                bi = 000009, bj = 000001
(PID.TID 0000.0001) //        EAST: Tile = 000011, Process = 000000, Comm = put
(PID.TID 0000.0001) //                bi = 000011, bj = 000001
(PID.TID 0000.0001) //       SOUTH: Tile = 000220, Process = 000000, Comm = put
(PID.TID 0000.0001) //                bi = 000010, bj = 000015
(PID.TID 0000.0001) //       NORTH: Tile = 000025, Process = 000000, Comm = put
(PID.TID 0000.0001) //                bi = 000010, bj = 000002
(PID.TID 0000.0001) // Tile number: 000011 (process no. = 000000)
(PID.TID 0000.0001) //        WEST: Tile = 000010, Process = 000000, Comm = put
(PID.TID 0000.0001) //                bi = 000010, bj = 000001
(PID.TID 0000.0001) //        EAST: Tile = 000012, Process = 000000, Comm = put
(PID.TID 0000.0001) //                bi = 000012, bj = 000001
(PID.TID 0000.0001) //       SOUTH: Tile = 000221, Process = 000000, Comm = put
(PID.TID 0000.0001) //                bi = 000011, bj = 000015
(PID.TID 0000.0001) //       NORTH: Tile = 000026, Process = 000000, Comm = put
(PID.TID 0000.0001) //                bi = 000011, bj = 000002
(PID.TID 0000.0001) // Tile number: 000012 (process no. = 000000)
(PID.TID 0000.0001) //        WEST: Tile = 000011, Process = 000000, Comm = put
(PID.TID 0000.0001) //                bi = 000011, bj = 000001
(PID.TID 0000.0001) //        EAST: Tile = 000013, Process = 000000, Comm = put
(PID.TID 0000.0001) //                bi = 000013, bj = 000001
(PID.TID 0000.0001) //       SOUTH: Tile = 000222, Process = 000000, Comm = put
(PID.TID 0000.0001) //                bi = 000012, bj = 000015
(PID.TID 0000.0001) //       NORTH: Tile = 000027, Process = 000000, Comm = put
(PID.TID 0000.0001) //                bi = 000012, bj = 000002
(PID.TID 0000.0001) // Tile number: 000013 (process no. = 000000)
(PID.TID 0000.0001) //        WEST: Tile = 000012, Process = 000000, Comm = put
(PID.TID 0000.0001) //                bi = 000012, bj = 000001
(PID.TID 0000.0001) //        EAST: Tile = 000014, Process = 000000, Comm = put
(PID.TID 0000.0001) //                bi = 000014, bj = 000001
(PID.TID 0000.0001) //       SOUTH: Tile = 000223, Process = 000000, Comm = put
(PID.TID 0000.0001) //                bi = 000013, bj = 000015
(PID.TID 0000.0001) //       NORTH: Tile = 000028, Process = 000000, Comm = put
(PID.TID 0000.0001) //                bi = 000013, bj = 000002
(PID.TID 0000.0001) // Tile number: 000014 (process no. = 000000)
(PID.TID 0000.0001) //        WEST: Tile = 000013, Process = 000000, Comm = put
(PID.TID 0000.0001) //                bi = 000013, bj = 000001
(PID.TID 0000.0001) //        EAST: Tile = 000015, Process = 000000, Comm = put
(PID.TID 0000.0001) //                bi = 000015, bj = 000001
(PID.TID 0000.0001) //       SOUTH: Tile = 000224, Process = 000000, Comm = put
(PID.TID 0000.0001) //                bi = 000014, bj = 000015
(PID.TID 0000.0001) //       NORTH: Tile = 000029, Process = 000000, Comm = put
(PID.TID 0000.0001) //                bi = 000014, bj = 000002
(PID.TID 0000.0001) // Tile number: 000015 (process no. = 000000)
(PID.TID 0000.0001) //        WEST: Tile = 000014, Process = 000000, Comm = put
(PID.TID 0000.0001) //                bi = 000014, bj = 000001
(PID.TID 0000.0001) //        EAST: Tile = 000001, Process = 000000, Comm = put
(PID.TID 0000.0001) //                bi = 000001, bj = 000001
(PID.TID 0000.0001) //       SOUTH: Tile = 000225, Process = 000000, Comm = put
(PID.TID 0000.0001) //                bi = 000015, bj = 000015
(PID.TID 0000.0001) //       NORTH: Tile = 000030, Process = 000000, Comm = put
(PID.TID 0000.0001) //                bi = 000015, bj = 000002
(PID.TID 0000.0001) // Tile number: 000016 (process no. = 000000)
(PID.TID 0000.0001) //        WEST: Tile = 000030, Process = 000000, Comm = put
(PID.TID 0000.0001) //                bi = 000015, bj = 000002
(PID.TID 0000.0001) //        EAST: Tile = 000017, Process = 000000, Comm = put
(PID.TID 0000.0001) //                bi = 000002, bj = 000002
(PID.TID 0000.0001) //       SOUTH: Tile = 000001, Process = 000000, Comm = put
(PID.TID 0000.0001) //                bi = 000001, bj = 000001
(PID.TID 0000.0001) //       NORTH: Tile = 000031, Process = 000000, Comm = put
(PID.TID 0000.0001) //                bi = 000001, bj = 000003
(PID.TID 0000.0001) // Tile number: 000017 (process no. = 000000)
(PID.TID 0000.0001) //        WEST: Tile = 000016, Process = 000000, Comm = put
(PID.TID 0000.0001) //                bi = 000001, bj = 000002
(PID.TID 0000.0001) //        EAST: Tile = 000018, Process = 000000, Comm = put
(PID.TID 0000.0001) //                bi = 000003, bj = 000002
(PID.TID 0000.0001) //       SOUTH: Tile = 000002, Process = 000000, Comm = put
(PID.TID 0000.0001) //                bi = 000002, bj = 000001
(PID.TID 0000.0001) //       NORTH: Tile = 000032, Process = 000000, Comm = put
(PID.TID 0000.0001) //                bi = 000002, bj = 000003
(PID.TID 0000.0001) // Tile number: 000018 (process no. = 000000)
(PID.TID 0000.0001) //        WEST: Tile = 000017, Process = 000000, Comm = put
(PID.TID 0000.0001) //                bi = 000002, bj = 000002
(PID.TID 0000.0001) //        EAST: Tile = 000019, Process = 000000, Comm = put
(PID.TID 0000.0001) //                bi = 000004, bj = 000002
(PID.TID 0000.0001) //       SOUTH: Tile = 000003, Process = 000000, Comm = put
(PID.TID 0000.0001) //                bi = 000003, bj = 000001
(PID.TID 0000.0001) //       NORTH: Tile = 000033, Process = 000000, Comm = put
(PID.TID 0000.0001) //                bi = 000003, bj = 000003
(PID.TID 0000.0001) // Tile number: 000019 (process no. = 000000)
(PID.TID 0000.0001) //        WEST: Tile = 000018, Process = 000000, Comm = put
(PID.TID 0000.0001) //                bi = 000003, bj = 000002
(PID.TID 0000.0001) //        EAST: Tile = 000020, Process = 000000, Comm = put
(PID.TID 0000.0001) //                bi = 000005, bj = 000002
(PID.TID 0000.0001) //       SOUTH: Tile = 000004, Process = 000000, Comm = put
(PID.TID 0000.0001) //                bi = 000004, bj = 000001
(PID.TID 0000.0001) //       NORTH: Tile = 000034, Process = 000000, Comm = put
(PID.TID 0000.0001) //                bi = 000004, bj = 000003
(PID.TID 0000.0001) // Tile number: 000020 (process no. = 000000)
(PID.TID 0000.0001) //        WEST: Tile = 000019, Process = 000000, Comm = put
(PID.TID 0000.0001) //                bi = 000004, bj = 000002
(PID.TID 0000.0001) //        EAST: Tile = 000021, Process = 000000, Comm = put
(PID.TID 0000.0001) //                bi = 000006, bj = 000002
(PID.TID 0000.0001) //       SOUTH: Tile = 000005, Process = 000000, Comm = put
(PID.TID 0000.0001) //                bi = 000005, bj = 000001
(PID.TID 0000.0001) //       NORTH: Tile = 000035, Process = 000000, Comm = put
(PID.TID 0000.0001) //                bi = 000005, bj = 000003
(PID.TID 0000.0001) // Tile number: 000021 (process no. = 000000)
(PID.TID 0000.0001) //        WEST: Tile = 000020, Process = 000000, Comm = put
(PID.TID 0000.0001) //                bi = 000005, bj = 000002
(PID.TID 0000.0001) //        EAST: Tile = 000022, Process = 000000, Comm = put
(PID.TID 0000.0001) //                bi = 000007, bj = 000002
(PID.TID 0000.0001) //       SOUTH: Tile = 000006, Process = 000000, Comm = put
(PID.TID 0000.0001) //                bi = 000006, bj = 000001
(PID.TID 0000.0001) //       NORTH: Tile = 000036, Process = 000000, Comm = put
(PID.TID 0000.0001) //                bi = 000006, bj = 000003
(PID.TID 0000.0001) // Tile number: 000022 (process no. = 000000)
(PID.TID 0000.0001) //        WEST: Tile = 000021, Process = 000000, Comm = put
(PID.TID 0000.0001) //                bi = 000006, bj = 000002
(PID.TID 0000.0001) //        EAST: Tile = 000023, Process = 000000, Comm = put
(PID.TID 0000.0001) //                bi = 000008, bj = 000002
(PID.TID 0000.0001) //       SOUTH: Tile = 000007, Process = 000000, Comm = put
(PID.TID 0000.0001) //                bi = 000007, bj = 000001
(PID.TID 0000.0001) //       NORTH: Tile = 000037, Process = 000000, Comm = put
(PID.TID 0000.0001) //                bi = 000007, bj = 000003
(PID.TID 0000.0001) // Tile number: 000023 (process no. = 000000)
(PID.TID 0000.0001) //        WEST: Tile = 000022, Process = 000000, Comm = put
(PID.TID 0000.0001) //                bi = 000007, bj = 000002
(PID.TID 0000.0001) //        EAST: Tile = 000024, Process = 000000, Comm = put
(PID.TID 0000.0001) //                bi = 000009, bj = 000002
(PID.TID 0000.0001) //       SOUTH: Tile = 000008, Process = 000000, Comm = put
(PID.TID 0000.0001) //                bi = 000008, bj = 000001
(PID.TID 0000.0001) //       NORTH: Tile = 000038, Process = 000000, Comm = put
(PID.TID 0000.0001) //                bi = 000008, bj = 000003
(PID.TID 0000.0001) // Tile number: 000024 (process no. = 000000)
(PID.TID 0000.0001) //        WEST: Tile = 000023, Process = 000000, Comm = put
(PID.TID 0000.0001) //                bi = 000008, bj = 000002
(PID.TID 0000.0001) //        EAST: Tile = 000025, Process = 000000, Comm = put
(PID.TID 0000.0001) //                bi = 000010, bj = 000002
(PID.TID 0000.0001) //       SOUTH: Tile = 000009, Process = 000000, Comm = put
(PID.TID 0000.0001) //                bi = 000009, bj = 000001
(PID.TID 0000.0001) //       NORTH: Tile = 000039, Process = 000000, Comm = put
(PID.TID 0000.0001) //                bi = 000009, bj = 000003
(PID.TID 0000.0001) // Tile number: 000025 (process no. = 000000)
(PID.TID 0000.0001) //        WEST: Tile = 000024, Process = 000000, Comm = put
(PID.TID 0000.0001) //                bi = 000009, bj = 000002
(PID.TID 0000.0001) //        EAST: Tile = 000026, Process = 000000, Comm = put
(PID.TID 0000.0001) //                bi = 000011, bj = 000002
(PID.TID 0000.0001) //       SOUTH: Tile = 000010, Process = 000000, Comm = put
(PID.TID 0000.0001) //                bi = 000010, bj = 000001
(PID.TID 0000.0001) //       NORTH: Tile = 000040, Process = 000000, Comm = put
(PID.TID 0000.0001) //                bi = 000010, bj = 000003
(PID.TID 0000.0001) // Tile number: 000026 (process no. = 000000)
(PID.TID 0000.0001) //        WEST: Tile = 000025, Process = 000000, Comm = put
(PID.TID 0000.0001) //                bi = 000010, bj = 000002
(PID.TID 0000.0001) //        EAST: Tile = 000027, Process = 000000, Comm = put
(PID.TID 0000.0001) //                bi = 000012, bj = 000002
(PID.TID 0000.0001) //       SOUTH: Tile = 000011, Process = 000000, Comm = put
(PID.TID 0000.0001) //                bi = 000011, bj = 000001
(PID.TID 0000.0001) //       NORTH: Tile = 000041, Process = 000000, Comm = put
(PID.TID 0000.0001) //                bi = 000011, bj = 000003
(PID.TID 0000.0001) // Tile number: 000027 (process no. = 000000)
(PID.TID 0000.0001) //        WEST: Tile = 000026, Process = 000000, Comm = put
(PID.TID 0000.0001) //                bi = 000011, bj = 000002
(PID.TID 0000.0001) //        EAST: Tile = 000028, Process = 000000, Comm = put
(PID.TID 0000.0001) //                bi = 000013, bj = 000002
(PID.TID 0000.0001) //       SOUTH: Tile = 000012, Process = 000000, Comm = put
(PID.TID 0000.0001) //                bi = 000012, bj = 000001
(PID.TID 0000.0001) //       NORTH: Tile = 000042, Process = 000000, Comm = put
(PID.TID 0000.0001) //                bi = 000012, bj = 000003
(PID.TID 0000.0001) // Tile number: 000028 (process no. = 000000)
(PID.TID 0000.0001) //        WEST: Tile = 000027, Process = 000000, Comm = put
(PID.TID 0000.0001) //                bi = 000012, bj = 000002
(PID.TID 0000.0001) //        EAST: Tile = 000029, Process = 000000, Comm = put
(PID.TID 0000.0001) //                bi = 000014, bj = 000002
(PID.TID 0000.0001) //       SOUTH: Tile = 000013, Process = 000000, Comm = put
(PID.TID 0000.0001) //                bi = 000013, bj = 000001
(PID.TID 0000.0001) //       NORTH: Tile = 000043, Process = 000000, Comm = put
(PID.TID 0000.0001) //                bi = 000013, bj = 000003
(PID.TID 0000.0001) // Tile number: 000029 (process no. = 000000)
(PID.TID 0000.0001) //        WEST: Tile = 000028, Process = 000000, Comm = put
(PID.TID 0000.0001) //                bi = 000013, bj = 000002
(PID.TID 0000.0001) //        EAST: Tile = 000030, Process = 000000, Comm = put
(PID.TID 0000.0001) //                bi = 000015, bj = 000002
(PID.TID 0000.0001) //       SOUTH: Tile = 000014, Process = 000000, Comm = put
(PID.TID 0000.0001) //                bi = 000014, bj = 000001
(PID.TID 0000.0001) //       NORTH: Tile = 000044, Process = 000000, Comm = put
(PID.TID 0000.0001) //                bi = 000014, bj = 000003
(PID.TID 0000.0001) // Tile number: 000030 (process no. = 000000)
(PID.TID 0000.0001) //        WEST: Tile = 000029, Process = 000000, Comm = put
(PID.TID 0000.0001) //                bi = 000014, bj = 000002
(PID.TID 0000.0001) //        EAST: Tile = 000016, Process = 000000, Comm = put
(PID.TID 0000.0001) //                bi = 000001, bj = 000002
(PID.TID 0000.0001) //       SOUTH: Tile = 000015, Process = 000000, Comm = put
(PID.TID 0000.0001) //                bi = 000015, bj = 000001
(PID.TID 0000.0001) //       NORTH: Tile = 000045, Process = 000000, Comm = put
(PID.TID 0000.0001) //                bi = 000015, bj = 000003
(PID.TID 0000.0001) // Tile number: 000031 (process no. = 000000)
(PID.TID 0000.0001) //        WEST: Tile = 000045, Process = 000000, Comm = put
(PID.TID 0000.0001) //                bi = 000015, bj = 000003
(PID.TID 0000.0001) //        EAST: Tile = 000032, Process = 000000, Comm = put
(PID.TID 0000.0001) //                bi = 000002, bj = 000003
(PID.TID 0000.0001) //       SOUTH: Tile = 000016, Process = 000000, Comm = put
(PID.TID 0000.0001) //                bi = 000001, bj = 000002
(PID.TID 0000.0001) //       NORTH: Tile = 000046, Process = 000000, Comm = put
(PID.TID 0000.0001) //                bi = 000001, bj = 000004
(PID.TID 0000.0001) // Tile number: 000032 (process no. = 000000)
(PID.TID 0000.0001) //        WEST: Tile = 000031, Process = 000000, Comm = put
(PID.TID 0000.0001) //                bi = 000001, bj = 000003
(PID.TID 0000.0001) //        EAST: Tile = 000033, Process = 000000, Comm = put
(PID.TID 0000.0001) //                bi = 000003, bj = 000003
(PID.TID 0000.0001) //       SOUTH: Tile = 000017, Process = 000000, Comm = put
(PID.TID 0000.0001) //                bi = 000002, bj = 000002
(PID.TID 0000.0001) //       NORTH: Tile = 000047, Process = 000000, Comm = put
(PID.TID 0000.0001) //                bi = 000002, bj = 000004
(PID.TID 0000.0001) // Tile number: 000033 (process no. = 000000)
(PID.TID 0000.0001) //        WEST: Tile = 000032, Process = 000000, Comm = put
(PID.TID 0000.0001) //                bi = 000002, bj = 000003
(PID.TID 0000.0001) //        EAST: Tile = 000034, Process = 000000, Comm = put
(PID.TID 0000.0001) //                bi = 000004, bj = 000003
(PID.TID 0000.0001) //       SOUTH: Tile = 000018, Process = 000000, Comm = put
(PID.TID 0000.0001) //                bi = 000003, bj = 000002
(PID.TID 0000.0001) //       NORTH: Tile = 000048, Process = 000000, Comm = put
(PID.TID 0000.0001) //                bi = 000003, bj = 000004
(PID.TID 0000.0001) // Tile number: 000034 (process no. = 000000)
(PID.TID 0000.0001) //        WEST: Tile = 000033, Process = 000000, Comm = put
(PID.TID 0000.0001) //                bi = 000003, bj = 000003
(PID.TID 0000.0001) //        EAST: Tile = 000035, Process = 000000, Comm = put
(PID.TID 0000.0001) //                bi = 000005, bj = 000003
(PID.TID 0000.0001) //       SOUTH: Tile = 000019, Process = 000000, Comm = put
(PID.TID 0000.0001) //                bi = 000004, bj = 000002
(PID.TID 0000.0001) //       NORTH: Tile = 000049, Process = 000000, Comm = put
(PID.TID 0000.0001) //                bi = 000004, bj = 000004
(PID.TID 0000.0001) // Tile number: 000035 (process no. = 000000)
(PID.TID 0000.0001) //        WEST: Tile = 000034, Process = 000000, Comm = put
(PID.TID 0000.0001) //                bi = 000004, bj = 000003
(PID.TID 0000.0001) //        EAST: Tile = 000036, Process = 000000, Comm = put
(PID.TID 0000.0001) //                bi = 000006, bj = 000003
(PID.TID 0000.0001) //       SOUTH: Tile = 000020, Process = 000000, Comm = put
(PID.TID 0000.0001) //                bi = 000005, bj = 000002
(PID.TID 0000.0001) //       NORTH: Tile = 000050, Process = 000000, Comm = put
(PID.TID 0000.0001) //                bi = 000005, bj = 000004
(PID.TID 0000.0001) // Tile number: 000036 (process no. = 000000)
(PID.TID 0000.0001) //        WEST: Tile = 000035, Process = 000000, Comm = put
(PID.TID 0000.0001) //                bi = 000005, bj = 000003
(PID.TID 0000.0001) //        EAST: Tile = 000037, Process = 000000, Comm = put
(PID.TID 0000.0001) //                bi = 000007, bj = 000003
(PID.TID 0000.0001) //       SOUTH: Tile = 000021, Process = 000000, Comm = put
(PID.TID 0000.0001) //                bi = 000006, bj = 000002
(PID.TID 0000.0001) //       NORTH: Tile = 000051, Process = 000000, Comm = put
(PID.TID 0000.0001) //                bi = 000006, bj = 000004
(PID.TID 0000.0001) // Tile number: 000037 (process no. = 000000)
(PID.TID 0000.0001) //        WEST: Tile = 000036, Process = 000000, Comm = put
(PID.TID 0000.0001) //                bi = 000006, bj = 000003
(PID.TID 0000.0001) //        EAST: Tile = 000038, Process = 000000, Comm = put
(PID.TID 0000.0001) //                bi = 000008, bj = 000003
(PID.TID 0000.0001) //       SOUTH: Tile = 000022, Process = 000000, Comm = put
(PID.TID 0000.0001) //                bi = 000007, bj = 000002
(PID.TID 0000.0001) //       NORTH: Tile = 000052, Process = 000000, Comm = put
(PID.TID 0000.0001) //                bi = 000007, bj = 000004
(PID.TID 0000.0001) // Tile number: 000038 (process no. = 000000)
(PID.TID 0000.0001) //        WEST: Tile = 000037, Process = 000000, Comm = put
(PID.TID 0000.0001) //                bi = 000007, bj = 000003
(PID.TID 0000.0001) //        EAST: Tile = 000039, Process = 000000, Comm = put
(PID.TID 0000.0001) //                bi = 000009, bj = 000003
(PID.TID 0000.0001) //       SOUTH: Tile = 000023, Process = 000000, Comm = put
(PID.TID 0000.0001) //                bi = 000008, bj = 000002
(PID.TID 0000.0001) //       NORTH: Tile = 000053, Process = 000000, Comm = put
(PID.TID 0000.0001) //                bi = 000008, bj = 000004
(PID.TID 0000.0001) // Tile number: 000039 (process no. = 000000)
(PID.TID 0000.0001) //        WEST: Tile = 000038, Process = 000000, Comm = put
(PID.TID 0000.0001) //                bi = 000008, bj = 000003
(PID.TID 0000.0001) //        EAST: Tile = 000040, Process = 000000, Comm = put
(PID.TID 0000.0001) //                bi = 000010, bj = 000003
(PID.TID 0000.0001) //       SOUTH: Tile = 000024, Process = 000000, Comm = put
(PID.TID 0000.0001) //                bi = 000009, bj = 000002
(PID.TID 0000.0001) //       NORTH: Tile = 000054, Process = 000000, Comm = put
(PID.TID 0000.0001) //                bi = 000009, bj = 000004
(PID.TID 0000.0001) // Tile number: 000040 (process no. = 000000)
(PID.TID 0000.0001) //        WEST: Tile = 000039, Process = 000000, Comm = put
(PID.TID 0000.0001) //                bi = 000009, bj = 000003
(PID.TID 0000.0001) //        EAST: Tile = 000041, Process = 000000, Comm = put
(PID.TID 0000.0001) //                bi = 000011, bj = 000003
(PID.TID 0000.0001) //       SOUTH: Tile = 000025, Process = 000000, Comm = put
(PID.TID 0000.0001) //                bi = 000010, bj = 000002
(PID.TID 0000.0001) //       NORTH: Tile = 000055, Process = 000000, Comm = put
(PID.TID 0000.0001) //                bi = 000010, bj = 000004
(PID.TID 0000.0001) // Tile number: 000041 (process no. = 000000)
(PID.TID 0000.0001) //        WEST: Tile = 000040, Process = 000000, Comm = put
(PID.TID 0000.0001) //                bi = 000010, bj = 000003
(PID.TID 0000.0001) //        EAST: Tile = 000042, Process = 000000, Comm = put
(PID.TID 0000.0001) //                bi = 000012, bj = 000003
(PID.TID 0000.0001) //       SOUTH: Tile = 000026, Process = 000000, Comm = put
(PID.TID 0000.0001) //                bi = 000011, bj = 000002
(PID.TID 0000.0001) //       NORTH: Tile = 000056, Process = 000000, Comm = put
(PID.TID 0000.0001) //                bi = 000011, bj = 000004
(PID.TID 0000.0001) // Tile number: 000042 (process no. = 000000)
(PID.TID 0000.0001) //        WEST: Tile = 000041, Process = 000000, Comm = put
(PID.TID 0000.0001) //                bi = 000011, bj = 000003
(PID.TID 0000.0001) //        EAST: Tile = 000043, Process = 000000, Comm = put
(PID.TID 0000.0001) //                bi = 000013, bj = 000003
(PID.TID 0000.0001) //       SOUTH: Tile = 000027, Process = 000000, Comm = put
(PID.TID 0000.0001) //                bi = 000012, bj = 000002
(PID.TID 0000.0001) //       NORTH: Tile = 000057, Process = 000000, Comm = put
(PID.TID 0000.0001) //                bi = 000012, bj = 000004
(PID.TID 0000.0001) // Tile number: 000043 (process no. = 000000)
(PID.TID 0000.0001) //        WEST: Tile = 000042, Process = 000000, Comm = put
(PID.TID 0000.0001) //                bi = 000012, bj = 000003
(PID.TID 0000.0001) //        EAST: Tile = 000044, Process = 000000, Comm = put
(PID.TID 0000.0001) //                bi = 000014, bj = 000003
(PID.TID 0000.0001) //       SOUTH: Tile = 000028, Process = 000000, Comm = put
(PID.TID 0000.0001) //                bi = 000013, bj = 000002
(PID.TID 0000.0001) //       NORTH: Tile = 000058, Process = 000000, Comm = put
(PID.TID 0000.0001) //                bi = 000013, bj = 000004
(PID.TID 0000.0001) // Tile number: 000044 (process no. = 000000)
(PID.TID 0000.0001) //        WEST: Tile = 000043, Process = 000000, Comm = put
(PID.TID 0000.0001) //                bi = 000013, bj = 000003
(PID.TID 0000.0001) //        EAST: Tile = 000045, Process = 000000, Comm = put
(PID.TID 0000.0001) //                bi = 000015, bj = 000003
(PID.TID 0000.0001) //       SOUTH: Tile = 000029, Process = 000000, Comm = put
(PID.TID 0000.0001) //                bi = 000014, bj = 000002
(PID.TID 0000.0001) //       NORTH: Tile = 000059, Process = 000000, Comm = put
(PID.TID 0000.0001) //                bi = 000014, bj = 000004
(PID.TID 0000.0001) // Tile number: 000045 (process no. = 000000)
(PID.TID 0000.0001) //        WEST: Tile = 000044, Process = 000000, Comm = put
(PID.TID 0000.0001) //                bi = 000014, bj = 000003
(PID.TID 0000.0001) //        EAST: Tile = 000031, Process = 000000, Comm = put
(PID.TID 0000.0001) //                bi = 000001, bj = 000003
(PID.TID 0000.0001) //       SOUTH: Tile = 000030, Process = 000000, Comm = put
(PID.TID 0000.0001) //                bi = 000015, bj = 000002
(PID.TID 0000.0001) //       NORTH: Tile = 000060, Process = 000000, Comm = put
(PID.TID 0000.0001) //                bi = 000015, bj = 000004
(PID.TID 0000.0001) // Tile number: 000046 (process no. = 000000)
(PID.TID 0000.0001) //        WEST: Tile = 000060, Process = 000000, Comm = put
(PID.TID 0000.0001) //                bi = 000015, bj = 000004
(PID.TID 0000.0001) //        EAST: Tile = 000047, Process = 000000, Comm = put
(PID.TID 0000.0001) //                bi = 000002, bj = 000004
(PID.TID 0000.0001) //       SOUTH: Tile = 000031, Process = 000000, Comm = put
(PID.TID 0000.0001) //                bi = 000001, bj = 000003
(PID.TID 0000.0001) //       NORTH: Tile = 000061, Process = 000000, Comm = put
(PID.TID 0000.0001) //                bi = 000001, bj = 000005
(PID.TID 0000.0001) // Tile number: 000047 (process no. = 000000)
(PID.TID 0000.0001) //        WEST: Tile = 000046, Process = 000000, Comm = put
(PID.TID 0000.0001) //                bi = 000001, bj = 000004
(PID.TID 0000.0001) //        EAST: Tile = 000048, Process = 000000, Comm = put
(PID.TID 0000.0001) //                bi = 000003, bj = 000004
(PID.TID 0000.0001) //       SOUTH: Tile = 000032, Process = 000000, Comm = put
(PID.TID 0000.0001) //                bi = 000002, bj = 000003
(PID.TID 0000.0001) //       NORTH: Tile = 000062, Process = 000000, Comm = put
(PID.TID 0000.0001) //                bi = 000002, bj = 000005
(PID.TID 0000.0001) // Tile number: 000048 (process no. = 000000)
(PID.TID 0000.0001) //        WEST: Tile = 000047, Process = 000000, Comm = put
(PID.TID 0000.0001) //                bi = 000002, bj = 000004
(PID.TID 0000.0001) //        EAST: Tile = 000049, Process = 000000, Comm = put
(PID.TID 0000.0001) //                bi = 000004, bj = 000004
(PID.TID 0000.0001) //       SOUTH: Tile = 000033, Process = 000000, Comm = put
(PID.TID 0000.0001) //                bi = 000003, bj = 000003
(PID.TID 0000.0001) //       NORTH: Tile = 000063, Process = 000000, Comm = put
(PID.TID 0000.0001) //                bi = 000003, bj = 000005
(PID.TID 0000.0001) // Tile number: 000049 (process no. = 000000)
(PID.TID 0000.0001) //        WEST: Tile = 000048, Process = 000000, Comm = put
(PID.TID 0000.0001) //                bi = 000003, bj = 000004
(PID.TID 0000.0001) //        EAST: Tile = 000050, Process = 000000, Comm = put
(PID.TID 0000.0001) //                bi = 000005, bj = 000004
(PID.TID 0000.0001) //       SOUTH: Tile = 000034, Process = 000000, Comm = put
(PID.TID 0000.0001) //                bi = 000004, bj = 000003
(PID.TID 0000.0001) //       NORTH: Tile = 000064, Process = 000000, Comm = put
(PID.TID 0000.0001) //                bi = 000004, bj = 000005
(PID.TID 0000.0001) // Tile number: 000050 (process no. = 000000)
(PID.TID 0000.0001) //        WEST: Tile = 000049, Process = 000000, Comm = put
(PID.TID 0000.0001) //                bi = 000004, bj = 000004
(PID.TID 0000.0001) //        EAST: Tile = 000051, Process = 000000, Comm = put
(PID.TID 0000.0001) //                bi = 000006, bj = 000004
(PID.TID 0000.0001) //       SOUTH: Tile = 000035, Process = 000000, Comm = put
(PID.TID 0000.0001) //                bi = 000005, bj = 000003
(PID.TID 0000.0001) //       NORTH: Tile = 000065, Process = 000000, Comm = put
(PID.TID 0000.0001) //                bi = 000005, bj = 000005
(PID.TID 0000.0001) // Tile number: 000051 (process no. = 000000)
(PID.TID 0000.0001) //        WEST: Tile = 000050, Process = 000000, Comm = put
(PID.TID 0000.0001) //                bi = 000005, bj = 000004
(PID.TID 0000.0001) //        EAST: Tile = 000052, Process = 000000, Comm = put
(PID.TID 0000.0001) //                bi = 000007, bj = 000004
(PID.TID 0000.0001) //       SOUTH: Tile = 000036, Process = 000000, Comm = put
(PID.TID 0000.0001) //                bi = 000006, bj = 000003
(PID.TID 0000.0001) //       NORTH: Tile = 000066, Process = 000000, Comm = put
(PID.TID 0000.0001) //                bi = 000006, bj = 000005
(PID.TID 0000.0001) // Tile number: 000052 (process no. = 000000)
(PID.TID 0000.0001) //        WEST: Tile = 000051, Process = 000000, Comm = put
(PID.TID 0000.0001) //                bi = 000006, bj = 000004
(PID.TID 0000.0001) //        EAST: Tile = 000053, Process = 000000, Comm = put
(PID.TID 0000.0001) //                bi = 000008, bj = 000004
(PID.TID 0000.0001) //       SOUTH: Tile = 000037, Process = 000000, Comm = put
(PID.TID 0000.0001) //                bi = 000007, bj = 000003
(PID.TID 0000.0001) //       NORTH: Tile = 000067, Process = 000000, Comm = put
(PID.TID 0000.0001) //                bi = 000007, bj = 000005
(PID.TID 0000.0001) // Tile number: 000053 (process no. = 000000)
(PID.TID 0000.0001) //        WEST: Tile = 000052, Process = 000000, Comm = put
(PID.TID 0000.0001) //                bi = 000007, bj = 000004
(PID.TID 0000.0001) //        EAST: Tile = 000054, Process = 000000, Comm = put
(PID.TID 0000.0001) //                bi = 000009, bj = 000004
(PID.TID 0000.0001) //       SOUTH: Tile = 000038, Process = 000000, Comm = put
(PID.TID 0000.0001) //                bi = 000008, bj = 000003
(PID.TID 0000.0001) //       NORTH: Tile = 000068, Process = 000000, Comm = put
(PID.TID 0000.0001) //                bi = 000008, bj = 000005
(PID.TID 0000.0001) // Tile number: 000054 (process no. = 000000)
(PID.TID 0000.0001) //        WEST: Tile = 000053, Process = 000000, Comm = put
(PID.TID 0000.0001) //                bi = 000008, bj = 000004
(PID.TID 0000.0001) //        EAST: Tile = 000055, Process = 000000, Comm = put
(PID.TID 0000.0001) //                bi = 000010, bj = 000004
(PID.TID 0000.0001) //       SOUTH: Tile = 000039, Process = 000000, Comm = put
(PID.TID 0000.0001) //                bi = 000009, bj = 000003
(PID.TID 0000.0001) //       NORTH: Tile = 000069, Process = 000000, Comm = put
(PID.TID 0000.0001) //                bi = 000009, bj = 000005
(PID.TID 0000.0001) // Tile number: 000055 (process no. = 000000)
(PID.TID 0000.0001) //        WEST: Tile = 000054, Process = 000000, Comm = put
(PID.TID 0000.0001) //                bi = 000009, bj = 000004
(PID.TID 0000.0001) //        EAST: Tile = 000056, Process = 000000, Comm = put
(PID.TID 0000.0001) //                bi = 000011, bj = 000004
(PID.TID 0000.0001) //       SOUTH: Tile = 000040, Process = 000000, Comm = put
(PID.TID 0000.0001) //                bi = 000010, bj = 000003
(PID.TID 0000.0001) //       NORTH: Tile = 000070, Process = 000000, Comm = put
(PID.TID 0000.0001) //                bi = 000010, bj = 000005
(PID.TID 0000.0001) // Tile number: 000056 (process no. = 000000)
(PID.TID 0000.0001) //        WEST: Tile = 000055, Process = 000000, Comm = put
(PID.TID 0000.0001) //                bi = 000010, bj = 000004
(PID.TID 0000.0001) //        EAST: Tile = 000057, Process = 000000, Comm = put
(PID.TID 0000.0001) //                bi = 000012, bj = 000004
(PID.TID 0000.0001) //       SOUTH: Tile = 000041, Process = 000000, Comm = put
(PID.TID 0000.0001) //                bi = 000011, bj = 000003
(PID.TID 0000.0001) //       NORTH: Tile = 000071, Process = 000000, Comm = put
(PID.TID 0000.0001) //                bi = 000011, bj = 000005
(PID.TID 0000.0001) // Tile number: 000057 (process no. = 000000)
(PID.TID 0000.0001) //        WEST: Tile = 000056, Process = 000000, Comm = put
(PID.TID 0000.0001) //                bi = 000011, bj = 000004
(PID.TID 0000.0001) //        EAST: Tile = 000058, Process = 000000, Comm = put
(PID.TID 0000.0001) //                bi = 000013, bj = 000004
(PID.TID 0000.0001) //       SOUTH: Tile = 000042, Process = 000000, Comm = put
(PID.TID 0000.0001) //                bi = 000012, bj = 000003
(PID.TID 0000.0001) //       NORTH: Tile = 000072, Process = 000000, Comm = put
(PID.TID 0000.0001) //                bi = 000012, bj = 000005
(PID.TID 0000.0001) // Tile number: 000058 (process no. = 000000)
(PID.TID 0000.0001) //        WEST: Tile = 000057, Process = 000000, Comm = put
(PID.TID 0000.0001) //                bi = 000012, bj = 000004
(PID.TID 0000.0001) //        EAST: Tile = 000059, Process = 000000, Comm = put
(PID.TID 0000.0001) //                bi = 000014, bj = 000004
(PID.TID 0000.0001) //       SOUTH: Tile = 000043, Process = 000000, Comm = put
(PID.TID 0000.0001) //                bi = 000013, bj = 000003
(PID.TID 0000.0001) //       NORTH: Tile = 000073, Process = 000000, Comm = put
(PID.TID 0000.0001) //                bi = 000013, bj = 000005
(PID.TID 0000.0001) // Tile number: 000059 (process no. = 000000)
(PID.TID 0000.0001) //        WEST: Tile = 000058, Process = 000000, Comm = put
(PID.TID 0000.0001) //                bi = 000013, bj = 000004
(PID.TID 0000.0001) //        EAST: Tile = 000060, Process = 000000, Comm = put
(PID.TID 0000.0001) //                bi = 000015, bj = 000004
(PID.TID 0000.0001) //       SOUTH: Tile = 000044, Process = 000000, Comm = put
(PID.TID 0000.0001) //                bi = 000014, bj = 000003
(PID.TID 0000.0001) //       NORTH: Tile = 000074, Process = 000000, Comm = put
(PID.TID 0000.0001) //                bi = 000014, bj = 000005
(PID.TID 0000.0001) // Tile number: 000060 (process no. = 000000)
(PID.TID 0000.0001) //        WEST: Tile = 000059, Process = 000000, Comm = put
(PID.TID 0000.0001) //                bi = 000014, bj = 000004
(PID.TID 0000.0001) //        EAST: Tile = 000046, Process = 000000, Comm = put
(PID.TID 0000.0001) //                bi = 000001, bj = 000004
(PID.TID 0000.0001) //       SOUTH: Tile = 000045, Process = 000000, Comm = put
(PID.TID 0000.0001) //                bi = 000015, bj = 000003
(PID.TID 0000.0001) //       NORTH: Tile = 000075, Process = 000000, Comm = put
(PID.TID 0000.0001) //                bi = 000015, bj = 000005
(PID.TID 0000.0001) // Tile number: 000061 (process no. = 000000)
(PID.TID 0000.0001) //        WEST: Tile = 000075, Process = 000000, Comm = put
(PID.TID 0000.0001) //                bi = 000015, bj = 000005
(PID.TID 0000.0001) //        EAST: Tile = 000062, Process = 000000, Comm = put
(PID.TID 0000.0001) //                bi = 000002, bj = 000005
(PID.TID 0000.0001) //       SOUTH: Tile = 000046, Process = 000000, Comm = put
(PID.TID 0000.0001) //                bi = 000001, bj = 000004
(PID.TID 0000.0001) //       NORTH: Tile = 000076, Process = 000000, Comm = put
(PID.TID 0000.0001) //                bi = 000001, bj = 000006
(PID.TID 0000.0001) // Tile number: 000062 (process no. = 000000)
(PID.TID 0000.0001) //        WEST: Tile = 000061, Process = 000000, Comm = put
(PID.TID 0000.0001) //                bi = 000001, bj = 000005
(PID.TID 0000.0001) //        EAST: Tile = 000063, Process = 000000, Comm = put
(PID.TID 0000.0001) //                bi = 000003, bj = 000005
(PID.TID 0000.0001) //       SOUTH: Tile = 000047, Process = 000000, Comm = put
(PID.TID 0000.0001) //                bi = 000002, bj = 000004
(PID.TID 0000.0001) //       NORTH: Tile = 000077, Process = 000000, Comm = put
(PID.TID 0000.0001) //                bi = 000002, bj = 000006
(PID.TID 0000.0001) // Tile number: 000063 (process no. = 000000)
(PID.TID 0000.0001) //        WEST: Tile = 000062, Process = 000000, Comm = put
(PID.TID 0000.0001) //                bi = 000002, bj = 000005
(PID.TID 0000.0001) //        EAST: Tile = 000064, Process = 000000, Comm = put
(PID.TID 0000.0001) //                bi = 000004, bj = 000005
(PID.TID 0000.0001) //       SOUTH: Tile = 000048, Process = 000000, Comm = put
(PID.TID 0000.0001) //                bi = 000003, bj = 000004
(PID.TID 0000.0001) //       NORTH: Tile = 000078, Process = 000000, Comm = put
(PID.TID 0000.0001) //                bi = 000003, bj = 000006
(PID.TID 0000.0001) // Tile number: 000064 (process no. = 000000)
(PID.TID 0000.0001) //        WEST: Tile = 000063, Process = 000000, Comm = put
(PID.TID 0000.0001) //                bi = 000003, bj = 000005
(PID.TID 0000.0001) //        EAST: Tile = 000065, Process = 000000, Comm = put
(PID.TID 0000.0001) //                bi = 000005, bj = 000005
(PID.TID 0000.0001) //       SOUTH: Tile = 000049, Process = 000000, Comm = put
(PID.TID 0000.0001) //                bi = 000004, bj = 000004
(PID.TID 0000.0001) //       NORTH: Tile = 000079, Process = 000000, Comm = put
(PID.TID 0000.0001) //                bi = 000004, bj = 000006
(PID.TID 0000.0001) // Tile number: 000065 (process no. = 000000)
(PID.TID 0000.0001) //        WEST: Tile = 000064, Process = 000000, Comm = put
(PID.TID 0000.0001) //                bi = 000004, bj = 000005
(PID.TID 0000.0001) //        EAST: Tile = 000066, Process = 000000, Comm = put
(PID.TID 0000.0001) //                bi = 000006, bj = 000005
(PID.TID 0000.0001) //       SOUTH: Tile = 000050, Process = 000000, Comm = put
(PID.TID 0000.0001) //                bi = 000005, bj = 000004
(PID.TID 0000.0001) //       NORTH: Tile = 000080, Process = 000000, Comm = put
(PID.TID 0000.0001) //                bi = 000005, bj = 000006
(PID.TID 0000.0001) // Tile number: 000066 (process no. = 000000)
(PID.TID 0000.0001) //        WEST: Tile = 000065, Process = 000000, Comm = put
(PID.TID 0000.0001) //                bi = 000005, bj = 000005
(PID.TID 0000.0001) //        EAST: Tile = 000067, Process = 000000, Comm = put
(PID.TID 0000.0001) //                bi = 000007, bj = 000005
(PID.TID 0000.0001) //       SOUTH: Tile = 000051, Process = 000000, Comm = put
(PID.TID 0000.0001) //                bi = 000006, bj = 000004
(PID.TID 0000.0001) //       NORTH: Tile = 000081, Process = 000000, Comm = put
(PID.TID 0000.0001) //                bi = 000006, bj = 000006
(PID.TID 0000.0001) // Tile number: 000067 (process no. = 000000)
(PID.TID 0000.0001) //        WEST: Tile = 000066, Process = 000000, Comm = put
(PID.TID 0000.0001) //                bi = 000006, bj = 000005
(PID.TID 0000.0001) //        EAST: Tile = 000068, Process = 000000, Comm = put
(PID.TID 0000.0001) //                bi = 000008, bj = 000005
(PID.TID 0000.0001) //       SOUTH: Tile = 000052, Process = 000000, Comm = put
(PID.TID 0000.0001) //                bi = 000007, bj = 000004
(PID.TID 0000.0001) //       NORTH: Tile = 000082, Process = 000000, Comm = put
(PID.TID 0000.0001) //                bi = 000007, bj = 000006
(PID.TID 0000.0001) // Tile number: 000068 (process no. = 000000)
(PID.TID 0000.0001) //        WEST: Tile = 000067, Process = 000000, Comm = put
(PID.TID 0000.0001) //                bi = 000007, bj = 000005
(PID.TID 0000.0001) //        EAST: Tile = 000069, Process = 000000, Comm = put
(PID.TID 0000.0001) //                bi = 000009, bj = 000005
(PID.TID 0000.0001) //       SOUTH: Tile = 000053, Process = 000000, Comm = put
(PID.TID 0000.0001) //                bi = 000008, bj = 000004
(PID.TID 0000.0001) //       NORTH: Tile = 000083, Process = 000000, Comm = put
(PID.TID 0000.0001) //                bi = 000008, bj = 000006
(PID.TID 0000.0001) // Tile number: 000069 (process no. = 000000)
(PID.TID 0000.0001) //        WEST: Tile = 000068, Process = 000000, Comm = put
(PID.TID 0000.0001) //                bi = 000008, bj = 000005
(PID.TID 0000.0001) //        EAST: Tile = 000070, Process = 000000, Comm = put
(PID.TID 0000.0001) //                bi = 000010, bj = 000005
(PID.TID 0000.0001) //       SOUTH: Tile = 000054, Process = 000000, Comm = put
(PID.TID 0000.0001) //                bi = 000009, bj = 000004
(PID.TID 0000.0001) //       NORTH: Tile = 000084, Process = 000000, Comm = put
(PID.TID 0000.0001) //                bi = 000009, bj = 000006
(PID.TID 0000.0001) // Tile number: 000070 (process no. = 000000)
(PID.TID 0000.0001) //        WEST: Tile = 000069, Process = 000000, Comm = put
(PID.TID 0000.0001) //                bi = 000009, bj = 000005
(PID.TID 0000.0001) //        EAST: Tile = 000071, Process = 000000, Comm = put
(PID.TID 0000.0001) //                bi = 000011, bj = 000005
(PID.TID 0000.0001) //       SOUTH: Tile = 000055, Process = 000000, Comm = put
(PID.TID 0000.0001) //                bi = 000010, bj = 000004
(PID.TID 0000.0001) //       NORTH: Tile = 000085, Process = 000000, Comm = put
(PID.TID 0000.0001) //                bi = 000010, bj = 000006
(PID.TID 0000.0001) // Tile number: 000071 (process no. = 000000)
(PID.TID 0000.0001) //        WEST: Tile = 000070, Process = 000000, Comm = put
(PID.TID 0000.0001) //                bi = 000010, bj = 000005
(PID.TID 0000.0001) //        EAST: Tile = 000072, Process = 000000, Comm = put
(PID.TID 0000.0001) //                bi = 000012, bj = 000005
(PID.TID 0000.0001) //       SOUTH: Tile = 000056, Process = 000000, Comm = put
(PID.TID 0000.0001) //                bi = 000011, bj = 000004
(PID.TID 0000.0001) //       NORTH: Tile = 000086, Process = 000000, Comm = put
(PID.TID 0000.0001) //                bi = 000011, bj = 000006
(PID.TID 0000.0001) // Tile number: 000072 (process no. = 000000)
(PID.TID 0000.0001) //        WEST: Tile = 000071, Process = 000000, Comm = put
(PID.TID 0000.0001) //                bi = 000011, bj = 000005
(PID.TID 0000.0001) //        EAST: Tile = 000073, Process = 000000, Comm = put
(PID.TID 0000.0001) //                bi = 000013, bj = 000005
(PID.TID 0000.0001) //       SOUTH: Tile = 000057, Process = 000000, Comm = put
(PID.TID 0000.0001) //                bi = 000012, bj = 000004
(PID.TID 0000.0001) //       NORTH: Tile = 000087, Process = 000000, Comm = put
(PID.TID 0000.0001) //                bi = 000012, bj = 000006
(PID.TID 0000.0001) // Tile number: 000073 (process no. = 000000)
(PID.TID 0000.0001) //        WEST: Tile = 000072, Process = 000000, Comm = put
(PID.TID 0000.0001) //                bi = 000012, bj = 000005
(PID.TID 0000.0001) //        EAST: Tile = 000074, Process = 000000, Comm = put
(PID.TID 0000.0001) //                bi = 000014, bj = 000005
(PID.TID 0000.0001) //       SOUTH: Tile = 000058, Process = 000000, Comm = put
(PID.TID 0000.0001) //                bi = 000013, bj = 000004
(PID.TID 0000.0001) //       NORTH: Tile = 000088, Process = 000000, Comm = put
(PID.TID 0000.0001) //                bi = 000013, bj = 000006
(PID.TID 0000.0001) // Tile number: 000074 (process no. = 000000)
(PID.TID 0000.0001) //        WEST: Tile = 000073, Process = 000000, Comm = put
(PID.TID 0000.0001) //                bi = 000013, bj = 000005
(PID.TID 0000.0001) //        EAST: Tile = 000075, Process = 000000, Comm = put
(PID.TID 0000.0001) //                bi = 000015, bj = 000005
(PID.TID 0000.0001) //       SOUTH: Tile = 000059, Process = 000000, Comm = put
(PID.TID 0000.0001) //                bi = 000014, bj = 000004
(PID.TID 0000.0001) //       NORTH: Tile = 000089, Process = 000000, Comm = put
(PID.TID 0000.0001) //                bi = 000014, bj = 000006
(PID.TID 0000.0001) // Tile number: 000075 (process no. = 000000)
(PID.TID 0000.0001) //        WEST: Tile = 000074, Process = 000000, Comm = put
(PID.TID 0000.0001) //                bi = 000014, bj = 000005
(PID.TID 0000.0001) //        EAST: Tile = 000061, Process = 000000, Comm = put
(PID.TID 0000.0001) //                bi = 000001, bj = 000005
(PID.TID 0000.0001) //       SOUTH: Tile = 000060, Process = 000000, Comm = put
(PID.TID 0000.0001) //                bi = 000015, bj = 000004
(PID.TID 0000.0001) //       NORTH: Tile = 000090, Process = 000000, Comm = put
(PID.TID 0000.0001) //                bi = 000015, bj = 000006
(PID.TID 0000.0001) // Tile number: 000076 (process no. = 000000)
(PID.TID 0000.0001) //        WEST: Tile = 000090, Process = 000000, Comm = put
(PID.TID 0000.0001) //                bi = 000015, bj = 000006
(PID.TID 0000.0001) //        EAST: Tile = 000077, Process = 000000, Comm = put
(PID.TID 0000.0001) //                bi = 000002, bj = 000006
(PID.TID 0000.0001) //       SOUTH: Tile = 000061, Process = 000000, Comm = put
(PID.TID 0000.0001) //                bi = 000001, bj = 000005
(PID.TID 0000.0001) //       NORTH: Tile = 000091, Process = 000000, Comm = put
(PID.TID 0000.0001) //                bi = 000001, bj = 000007
(PID.TID 0000.0001) // Tile number: 000077 (process no. = 000000)
(PID.TID 0000.0001) //        WEST: Tile = 000076, Process = 000000, Comm = put
(PID.TID 0000.0001) //                bi = 000001, bj = 000006
(PID.TID 0000.0001) //        EAST: Tile = 000078, Process = 000000, Comm = put
(PID.TID 0000.0001) //                bi = 000003, bj = 000006
(PID.TID 0000.0001) //       SOUTH: Tile = 000062, Process = 000000, Comm = put
(PID.TID 0000.0001) //                bi = 000002, bj = 000005
(PID.TID 0000.0001) //       NORTH: Tile = 000092, Process = 000000, Comm = put
(PID.TID 0000.0001) //                bi = 000002, bj = 000007
(PID.TID 0000.0001) // Tile number: 000078 (process no. = 000000)
(PID.TID 0000.0001) //        WEST: Tile = 000077, Process = 000000, Comm = put
(PID.TID 0000.0001) //                bi = 000002, bj = 000006
(PID.TID 0000.0001) //        EAST: Tile = 000079, Process = 000000, Comm = put
(PID.TID 0000.0001) //                bi = 000004, bj = 000006
(PID.TID 0000.0001) //       SOUTH: Tile = 000063, Process = 000000, Comm = put
(PID.TID 0000.0001) //                bi = 000003, bj = 000005
(PID.TID 0000.0001) //       NORTH: Tile = 000093, Process = 000000, Comm = put
(PID.TID 0000.0001) //                bi = 000003, bj = 000007
(PID.TID 0000.0001) // Tile number: 000079 (process no. = 000000)
(PID.TID 0000.0001) //        WEST: Tile = 000078, Process = 000000, Comm = put
(PID.TID 0000.0001) //                bi = 000003, bj = 000006
(PID.TID 0000.0001) //        EAST: Tile = 000080, Process = 000000, Comm = put
(PID.TID 0000.0001) //                bi = 000005, bj = 000006
(PID.TID 0000.0001) //       SOUTH: Tile = 000064, Process = 000000, Comm = put
(PID.TID 0000.0001) //                bi = 000004, bj = 000005
(PID.TID 0000.0001) //       NORTH: Tile = 000094, Process = 000000, Comm = put
(PID.TID 0000.0001) //                bi = 000004, bj = 000007
(PID.TID 0000.0001) // Tile number: 000080 (process no. = 000000)
(PID.TID 0000.0001) //        WEST: Tile = 000079, Process = 000000, Comm = put
(PID.TID 0000.0001) //                bi = 000004, bj = 000006
(PID.TID 0000.0001) //        EAST: Tile = 000081, Process = 000000, Comm = put
(PID.TID 0000.0001) //                bi = 000006, bj = 000006
(PID.TID 0000.0001) //       SOUTH: Tile = 000065, Process = 000000, Comm = put
(PID.TID 0000.0001) //                bi = 000005, bj = 000005
(PID.TID 0000.0001) //       NORTH: Tile = 000095, Process = 000000, Comm = put
(PID.TID 0000.0001) //                bi = 000005, bj = 000007
(PID.TID 0000.0001) // Tile number: 000081 (process no. = 000000)
(PID.TID 0000.0001) //        WEST: Tile = 000080, Process = 000000, Comm = put
(PID.TID 0000.0001) //                bi = 000005, bj = 000006
(PID.TID 0000.0001) //        EAST: Tile = 000082, Process = 000000, Comm = put
(PID.TID 0000.0001) //                bi = 000007, bj = 000006
(PID.TID 0000.0001) //       SOUTH: Tile = 000066, Process = 000000, Comm = put
(PID.TID 0000.0001) //                bi = 000006, bj = 000005
(PID.TID 0000.0001) //       NORTH: Tile = 000096, Process = 000000, Comm = put
(PID.TID 0000.0001) //                bi = 000006, bj = 000007
(PID.TID 0000.0001) // Tile number: 000082 (process no. = 000000)
(PID.TID 0000.0001) //        WEST: Tile = 000081, Process = 000000, Comm = put
(PID.TID 0000.0001) //                bi = 000006, bj = 000006
(PID.TID 0000.0001) //        EAST: Tile = 000083, Process = 000000, Comm = put
(PID.TID 0000.0001) //                bi = 000008, bj = 000006
(PID.TID 0000.0001) //       SOUTH: Tile = 000067, Process = 000000, Comm = put
(PID.TID 0000.0001) //                bi = 000007, bj = 000005
(PID.TID 0000.0001) //       NORTH: Tile = 000097, Process = 000000, Comm = put
(PID.TID 0000.0001) //                bi = 000007, bj = 000007
(PID.TID 0000.0001) // Tile number: 000083 (process no. = 000000)
(PID.TID 0000.0001) //        WEST: Tile = 000082, Process = 000000, Comm = put
(PID.TID 0000.0001) //                bi = 000007, bj = 000006
(PID.TID 0000.0001) //        EAST: Tile = 000084, Process = 000000, Comm = put
(PID.TID 0000.0001) //                bi = 000009, bj = 000006
(PID.TID 0000.0001) //       SOUTH: Tile = 000068, Process = 000000, Comm = put
(PID.TID 0000.0001) //                bi = 000008, bj = 000005
(PID.TID 0000.0001) //       NORTH: Tile = 000098, Process = 000000, Comm = put
(PID.TID 0000.0001) //                bi = 000008, bj = 000007
(PID.TID 0000.0001) // Tile number: 000084 (process no. = 000000)
(PID.TID 0000.0001) //        WEST: Tile = 000083, Process = 000000, Comm = put
(PID.TID 0000.0001) //                bi = 000008, bj = 000006
(PID.TID 0000.0001) //        EAST: Tile = 000085, Process = 000000, Comm = put
(PID.TID 0000.0001) //                bi = 000010, bj = 000006
(PID.TID 0000.0001) //       SOUTH: Tile = 000069, Process = 000000, Comm = put
(PID.TID 0000.0001) //                bi = 000009, bj = 000005
(PID.TID 0000.0001) //       NORTH: Tile = 000099, Process = 000000, Comm = put
(PID.TID 0000.0001) //                bi = 000009, bj = 000007
(PID.TID 0000.0001) // Tile number: 000085 (process no. = 000000)
(PID.TID 0000.0001) //        WEST: Tile = 000084, Process = 000000, Comm = put
(PID.TID 0000.0001) //                bi = 000009, bj = 000006
(PID.TID 0000.0001) //        EAST: Tile = 000086, Process = 000000, Comm = put
(PID.TID 0000.0001) //                bi = 000011, bj = 000006
(PID.TID 0000.0001) //       SOUTH: Tile = 000070, Process = 000000, Comm = put
(PID.TID 0000.0001) //                bi = 000010, bj = 000005
(PID.TID 0000.0001) //       NORTH: Tile = 000100, Process = 000000, Comm = put
(PID.TID 0000.0001) //                bi = 000010, bj = 000007
(PID.TID 0000.0001) // Tile number: 000086 (process no. = 000000)
(PID.TID 0000.0001) //        WEST: Tile = 000085, Process = 000000, Comm = put
(PID.TID 0000.0001) //                bi = 000010, bj = 000006
(PID.TID 0000.0001) //        EAST: Tile = 000087, Process = 000000, Comm = put
(PID.TID 0000.0001) //                bi = 000012, bj = 000006
(PID.TID 0000.0001) //       SOUTH: Tile = 000071, Process = 000000, Comm = put
(PID.TID 0000.0001) //                bi = 000011, bj = 000005
(PID.TID 0000.0001) //       NORTH: Tile = 000101, Process = 000000, Comm = put
(PID.TID 0000.0001) //                bi = 000011, bj = 000007
(PID.TID 0000.0001) // Tile number: 000087 (process no. = 000000)
(PID.TID 0000.0001) //        WEST: Tile = 000086, Process = 000000, Comm = put
(PID.TID 0000.0001) //                bi = 000011, bj = 000006
(PID.TID 0000.0001) //        EAST: Tile = 000088, Process = 000000, Comm = put
(PID.TID 0000.0001) //                bi = 000013, bj = 000006
(PID.TID 0000.0001) //       SOUTH: Tile = 000072, Process = 000000, Comm = put
(PID.TID 0000.0001) //                bi = 000012, bj = 000005
(PID.TID 0000.0001) //       NORTH: Tile = 000102, Process = 000000, Comm = put
(PID.TID 0000.0001) //                bi = 000012, bj = 000007
(PID.TID 0000.0001) // Tile number: 000088 (process no. = 000000)
(PID.TID 0000.0001) //        WEST: Tile = 000087, Process = 000000, Comm = put
(PID.TID 0000.0001) //                bi = 000012, bj = 000006
(PID.TID 0000.0001) //        EAST: Tile = 000089, Process = 000000, Comm = put
(PID.TID 0000.0001) //                bi = 000014, bj = 000006
(PID.TID 0000.0001) //       SOUTH: Tile = 000073, Process = 000000, Comm = put
(PID.TID 0000.0001) //                bi = 000013, bj = 000005
(PID.TID 0000.0001) //       NORTH: Tile = 000103, Process = 000000, Comm = put
(PID.TID 0000.0001) //                bi = 000013, bj = 000007
(PID.TID 0000.0001) // Tile number: 000089 (process no. = 000000)
(PID.TID 0000.0001) //        WEST: Tile = 000088, Process = 000000, Comm = put
(PID.TID 0000.0001) //                bi = 000013, bj = 000006
(PID.TID 0000.0001) //        EAST: Tile = 000090, Process = 000000, Comm = put
(PID.TID 0000.0001) //                bi = 000015, bj = 000006
(PID.TID 0000.0001) //       SOUTH: Tile = 000074, Process = 000000, Comm = put
(PID.TID 0000.0001) //                bi = 000014, bj = 000005
(PID.TID 0000.0001) //       NORTH: Tile = 000104, Process = 000000, Comm = put
(PID.TID 0000.0001) //                bi = 000014, bj = 000007
(PID.TID 0000.0001) // Tile number: 000090 (process no. = 000000)
(PID.TID 0000.0001) //        WEST: Tile = 000089, Process = 000000, Comm = put
(PID.TID 0000.0001) //                bi = 000014, bj = 000006
(PID.TID 0000.0001) //        EAST: Tile = 000076, Process = 000000, Comm = put
(PID.TID 0000.0001) //                bi = 000001, bj = 000006
(PID.TID 0000.0001) //       SOUTH: Tile = 000075, Process = 000000, Comm = put
(PID.TID 0000.0001) //                bi = 000015, bj = 000005
(PID.TID 0000.0001) //       NORTH: Tile = 000105, Process = 000000, Comm = put
(PID.TID 0000.0001) //                bi = 000015, bj = 000007
(PID.TID 0000.0001) // Tile number: 000091 (process no. = 000000)
(PID.TID 0000.0001) //        WEST: Tile = 000105, Process = 000000, Comm = put
(PID.TID 0000.0001) //                bi = 000015, bj = 000007
(PID.TID 0000.0001) //        EAST: Tile = 000092, Process = 000000, Comm = put
(PID.TID 0000.0001) //                bi = 000002, bj = 000007
(PID.TID 0000.0001) //       SOUTH: Tile = 000076, Process = 000000, Comm = put
(PID.TID 0000.0001) //                bi = 000001, bj = 000006
(PID.TID 0000.0001) //       NORTH: Tile = 000106, Process = 000000, Comm = put
(PID.TID 0000.0001) //                bi = 000001, bj = 000008
(PID.TID 0000.0001) // Tile number: 000092 (process no. = 000000)
(PID.TID 0000.0001) //        WEST: Tile = 000091, Process = 000000, Comm = put
(PID.TID 0000.0001) //                bi = 000001, bj = 000007
(PID.TID 0000.0001) //        EAST: Tile = 000093, Process = 000000, Comm = put
(PID.TID 0000.0001) //                bi = 000003, bj = 000007
(PID.TID 0000.0001) //       SOUTH: Tile = 000077, Process = 000000, Comm = put
(PID.TID 0000.0001) //                bi = 000002, bj = 000006
(PID.TID 0000.0001) //       NORTH: Tile = 000107, Process = 000000, Comm = put
(PID.TID 0000.0001) //                bi = 000002, bj = 000008
(PID.TID 0000.0001) // Tile number: 000093 (process no. = 000000)
(PID.TID 0000.0001) //        WEST: Tile = 000092, Process = 000000, Comm = put
(PID.TID 0000.0001) //                bi = 000002, bj = 000007
(PID.TID 0000.0001) //        EAST: Tile = 000094, Process = 000000, Comm = put
(PID.TID 0000.0001) //                bi = 000004, bj = 000007
(PID.TID 0000.0001) //       SOUTH: Tile = 000078, Process = 000000, Comm = put
(PID.TID 0000.0001) //                bi = 000003, bj = 000006
(PID.TID 0000.0001) //       NORTH: Tile = 000108, Process = 000000, Comm = put
(PID.TID 0000.0001) //                bi = 000003, bj = 000008
(PID.TID 0000.0001) // Tile number: 000094 (process no. = 000000)
(PID.TID 0000.0001) //        WEST: Tile = 000093, Process = 000000, Comm = put
(PID.TID 0000.0001) //                bi = 000003, bj = 000007
(PID.TID 0000.0001) //        EAST: Tile = 000095, Process = 000000, Comm = put
(PID.TID 0000.0001) //                bi = 000005, bj = 000007
(PID.TID 0000.0001) //       SOUTH: Tile = 000079, Process = 000000, Comm = put
(PID.TID 0000.0001) //                bi = 000004, bj = 000006
(PID.TID 0000.0001) //       NORTH: Tile = 000109, Process = 000000, Comm = put
(PID.TID 0000.0001) //                bi = 000004, bj = 000008
(PID.TID 0000.0001) // Tile number: 000095 (process no. = 000000)
(PID.TID 0000.0001) //        WEST: Tile = 000094, Process = 000000, Comm = put
(PID.TID 0000.0001) //                bi = 000004, bj = 000007
(PID.TID 0000.0001) //        EAST: Tile = 000096, Process = 000000, Comm = put
(PID.TID 0000.0001) //                bi = 000006, bj = 000007
(PID.TID 0000.0001) //       SOUTH: Tile = 000080, Process = 000000, Comm = put
(PID.TID 0000.0001) //                bi = 000005, bj = 000006
(PID.TID 0000.0001) //       NORTH: Tile = 000110, Process = 000000, Comm = put
(PID.TID 0000.0001) //                bi = 000005, bj = 000008
(PID.TID 0000.0001) // Tile number: 000096 (process no. = 000000)
(PID.TID 0000.0001) //        WEST: Tile = 000095, Process = 000000, Comm = put
(PID.TID 0000.0001) //                bi = 000005, bj = 000007
(PID.TID 0000.0001) //        EAST: Tile = 000097, Process = 000000, Comm = put
(PID.TID 0000.0001) //                bi = 000007, bj = 000007
(PID.TID 0000.0001) //       SOUTH: Tile = 000081, Process = 000000, Comm = put
(PID.TID 0000.0001) //                bi = 000006, bj = 000006
(PID.TID 0000.0001) //       NORTH: Tile = 000111, Process = 000000, Comm = put
(PID.TID 0000.0001) //                bi = 000006, bj = 000008
(PID.TID 0000.0001) // Tile number: 000097 (process no. = 000000)
(PID.TID 0000.0001) //        WEST: Tile = 000096, Process = 000000, Comm = put
(PID.TID 0000.0001) //                bi = 000006, bj = 000007
(PID.TID 0000.0001) //        EAST: Tile = 000098, Process = 000000, Comm = put
(PID.TID 0000.0001) //                bi = 000008, bj = 000007
(PID.TID 0000.0001) //       SOUTH: Tile = 000082, Process = 000000, Comm = put
(PID.TID 0000.0001) //                bi = 000007, bj = 000006
(PID.TID 0000.0001) //       NORTH: Tile = 000112, Process = 000000, Comm = put
(PID.TID 0000.0001) //                bi = 000007, bj = 000008
(PID.TID 0000.0001) // Tile number: 000098 (process no. = 000000)
(PID.TID 0000.0001) //        WEST: Tile = 000097, Process = 000000, Comm = put
(PID.TID 0000.0001) //                bi = 000007, bj = 000007
(PID.TID 0000.0001) //        EAST: Tile = 000099, Process = 000000, Comm = put
(PID.TID 0000.0001) //                bi = 000009, bj = 000007
(PID.TID 0000.0001) //       SOUTH: Tile = 000083, Process = 000000, Comm = put
(PID.TID 0000.0001) //                bi = 000008, bj = 000006
(PID.TID 0000.0001) //       NORTH: Tile = 000113, Process = 000000, Comm = put
(PID.TID 0000.0001) //                bi = 000008, bj = 000008
(PID.TID 0000.0001) // Tile number: 000099 (process no. = 000000)
(PID.TID 0000.0001) //        WEST: Tile = 000098, Process = 000000, Comm = put
(PID.TID 0000.0001) //                bi = 000008, bj = 000007
(PID.TID 0000.0001) //        EAST: Tile = 000100, Process = 000000, Comm = put
(PID.TID 0000.0001) //                bi = 000010, bj = 000007
(PID.TID 0000.0001) //       SOUTH: Tile = 000084, Process = 000000, Comm = put
(PID.TID 0000.0001) //                bi = 000009, bj = 000006
(PID.TID 0000.0001) //       NORTH: Tile = 000114, Process = 000000, Comm = put
(PID.TID 0000.0001) //                bi = 000009, bj = 000008
(PID.TID 0000.0001) // Tile number: 000100 (process no. = 000000)
(PID.TID 0000.0001) //        WEST: Tile = 000099, Process = 000000, Comm = put
(PID.TID 0000.0001) //                bi = 000009, bj = 000007
(PID.TID 0000.0001) //        EAST: Tile = 000101, Process = 000000, Comm = put
(PID.TID 0000.0001) //                bi = 000011, bj = 000007
(PID.TID 0000.0001) //       SOUTH: Tile = 000085, Process = 000000, Comm = put
(PID.TID 0000.0001) //                bi = 000010, bj = 000006
(PID.TID 0000.0001) //       NORTH: Tile = 000115, Process = 000000, Comm = put
(PID.TID 0000.0001) //                bi = 000010, bj = 000008
(PID.TID 0000.0001) // Tile number: 000101 (process no. = 000000)
(PID.TID 0000.0001) //        WEST: Tile = 000100, Process = 000000, Comm = put
(PID.TID 0000.0001) //                bi = 000010, bj = 000007
(PID.TID 0000.0001) //        EAST: Tile = 000102, Process = 000000, Comm = put
(PID.TID 0000.0001) //                bi = 000012, bj = 000007
(PID.TID 0000.0001) //       SOUTH: Tile = 000086, Process = 000000, Comm = put
(PID.TID 0000.0001) //                bi = 000011, bj = 000006
(PID.TID 0000.0001) //       NORTH: Tile = 000116, Process = 000000, Comm = put
(PID.TID 0000.0001) //                bi = 000011, bj = 000008
(PID.TID 0000.0001) // Tile number: 000102 (process no. = 000000)
(PID.TID 0000.0001) //        WEST: Tile = 000101, Process = 000000, Comm = put
(PID.TID 0000.0001) //                bi = 000011, bj = 000007
(PID.TID 0000.0001) //        EAST: Tile = 000103, Process = 000000, Comm = put
(PID.TID 0000.0001) //                bi = 000013, bj = 000007
(PID.TID 0000.0001) //       SOUTH: Tile = 000087, Process = 000000, Comm = put
(PID.TID 0000.0001) //                bi = 000012, bj = 000006
(PID.TID 0000.0001) //       NORTH: Tile = 000117, Process = 000000, Comm = put
(PID.TID 0000.0001) //                bi = 000012, bj = 000008
(PID.TID 0000.0001) // Tile number: 000103 (process no. = 000000)
(PID.TID 0000.0001) //        WEST: Tile = 000102, Process = 000000, Comm = put
(PID.TID 0000.0001) //                bi = 000012, bj = 000007
(PID.TID 0000.0001) //        EAST: Tile = 000104, Process = 000000, Comm = put
(PID.TID 0000.0001) //                bi = 000014, bj = 000007
(PID.TID 0000.0001) //       SOUTH: Tile = 000088, Process = 000000, Comm = put
(PID.TID 0000.0001) //                bi = 000013, bj = 000006
(PID.TID 0000.0001) //       NORTH: Tile = 000118, Process = 000000, Comm = put
(PID.TID 0000.0001) //                bi = 000013, bj = 000008
(PID.TID 0000.0001) // Tile number: 000104 (process no. = 000000)
(PID.TID 0000.0001) //        WEST: Tile = 000103, Process = 000000, Comm = put
(PID.TID 0000.0001) //                bi = 000013, bj = 000007
(PID.TID 0000.0001) //        EAST: Tile = 000105, Process = 000000, Comm = put
(PID.TID 0000.0001) //                bi = 000015, bj = 000007
(PID.TID 0000.0001) //       SOUTH: Tile = 000089, Process = 000000, Comm = put
(PID.TID 0000.0001) //                bi = 000014, bj = 000006
(PID.TID 0000.0001) //       NORTH: Tile = 000119, Process = 000000, Comm = put
(PID.TID 0000.0001) //                bi = 000014, bj = 000008
(PID.TID 0000.0001) // Tile number: 000105 (process no. = 000000)
(PID.TID 0000.0001) //        WEST: Tile = 000104, Process = 000000, Comm = put
(PID.TID 0000.0001) //                bi = 000014, bj = 000007
(PID.TID 0000.0001) //        EAST: Tile = 000091, Process = 000000, Comm = put
(PID.TID 0000.0001) //                bi = 000001, bj = 000007
(PID.TID 0000.0001) //       SOUTH: Tile = 000090, Process = 000000, Comm = put
(PID.TID 0000.0001) //                bi = 000015, bj = 000006
(PID.TID 0000.0001) //       NORTH: Tile = 000120, Process = 000000, Comm = put
(PID.TID 0000.0001) //                bi = 000015, bj = 000008
(PID.TID 0000.0001) // Tile number: 000106 (process no. = 000000)
(PID.TID 0000.0001) //        WEST: Tile = 000120, Process = 000000, Comm = put
(PID.TID 0000.0001) //                bi = 000015, bj = 000008
(PID.TID 0000.0001) //        EAST: Tile = 000107, Process = 000000, Comm = put
(PID.TID 0000.0001) //                bi = 000002, bj = 000008
(PID.TID 0000.0001) //       SOUTH: Tile = 000091, Process = 000000, Comm = put
(PID.TID 0000.0001) //                bi = 000001, bj = 000007
(PID.TID 0000.0001) //       NORTH: Tile = 000121, Process = 000000, Comm = put
(PID.TID 0000.0001) //                bi = 000001, bj = 000009
(PID.TID 0000.0001) // Tile number: 000107 (process no. = 000000)
(PID.TID 0000.0001) //        WEST: Tile = 000106, Process = 000000, Comm = put
(PID.TID 0000.0001) //                bi = 000001, bj = 000008
(PID.TID 0000.0001) //        EAST: Tile = 000108, Process = 000000, Comm = put
(PID.TID 0000.0001) //                bi = 000003, bj = 000008
(PID.TID 0000.0001) //       SOUTH: Tile = 000092, Process = 000000, Comm = put
(PID.TID 0000.0001) //                bi = 000002, bj = 000007
(PID.TID 0000.0001) //       NORTH: Tile = 000122, Process = 000000, Comm = put
(PID.TID 0000.0001) //                bi = 000002, bj = 000009
(PID.TID 0000.0001) // Tile number: 000108 (process no. = 000000)
(PID.TID 0000.0001) //        WEST: Tile = 000107, Process = 000000, Comm = put
(PID.TID 0000.0001) //                bi = 000002, bj = 000008
(PID.TID 0000.0001) //        EAST: Tile = 000109, Process = 000000, Comm = put
(PID.TID 0000.0001) //                bi = 000004, bj = 000008
(PID.TID 0000.0001) //       SOUTH: Tile = 000093, Process = 000000, Comm = put
(PID.TID 0000.0001) //                bi = 000003, bj = 000007
(PID.TID 0000.0001) //       NORTH: Tile = 000123, Process = 000000, Comm = put
(PID.TID 0000.0001) //                bi = 000003, bj = 000009
(PID.TID 0000.0001) // Tile number: 000109 (process no. = 000000)
(PID.TID 0000.0001) //        WEST: Tile = 000108, Process = 000000, Comm = put
(PID.TID 0000.0001) //                bi = 000003, bj = 000008
(PID.TID 0000.0001) //        EAST: Tile = 000110, Process = 000000, Comm = put
(PID.TID 0000.0001) //                bi = 000005, bj = 000008
(PID.TID 0000.0001) //       SOUTH: Tile = 000094, Process = 000000, Comm = put
(PID.TID 0000.0001) //                bi = 000004, bj = 000007
(PID.TID 0000.0001) //       NORTH: Tile = 000124, Process = 000000, Comm = put
(PID.TID 0000.0001) //                bi = 000004, bj = 000009
(PID.TID 0000.0001) // Tile number: 000110 (process no. = 000000)
(PID.TID 0000.0001) //        WEST: Tile = 000109, Process = 000000, Comm = put
(PID.TID 0000.0001) //                bi = 000004, bj = 000008
(PID.TID 0000.0001) //        EAST: Tile = 000111, Process = 000000, Comm = put
(PID.TID 0000.0001) //                bi = 000006, bj = 000008
(PID.TID 0000.0001) //       SOUTH: Tile = 000095, Process = 000000, Comm = put
(PID.TID 0000.0001) //                bi = 000005, bj = 000007
(PID.TID 0000.0001) //       NORTH: Tile = 000125, Process = 000000, Comm = put
(PID.TID 0000.0001) //                bi = 000005, bj = 000009
(PID.TID 0000.0001) // Tile number: 000111 (process no. = 000000)
(PID.TID 0000.0001) //        WEST: Tile = 000110, Process = 000000, Comm = put
(PID.TID 0000.0001) //                bi = 000005, bj = 000008
(PID.TID 0000.0001) //        EAST: Tile = 000112, Process = 000000, Comm = put
(PID.TID 0000.0001) //                bi = 000007, bj = 000008
(PID.TID 0000.0001) //       SOUTH: Tile = 000096, Process = 000000, Comm = put
(PID.TID 0000.0001) //                bi = 000006, bj = 000007
(PID.TID 0000.0001) //       NORTH: Tile = 000126, Process = 000000, Comm = put
(PID.TID 0000.0001) //                bi = 000006, bj = 000009
(PID.TID 0000.0001) // Tile number: 000112 (process no. = 000000)
(PID.TID 0000.0001) //        WEST: Tile = 000111, Process = 000000, Comm = put
(PID.TID 0000.0001) //                bi = 000006, bj = 000008
(PID.TID 0000.0001) //        EAST: Tile = 000113, Process = 000000, Comm = put
(PID.TID 0000.0001) //                bi = 000008, bj = 000008
(PID.TID 0000.0001) //       SOUTH: Tile = 000097, Process = 000000, Comm = put
(PID.TID 0000.0001) //                bi = 000007, bj = 000007
(PID.TID 0000.0001) //       NORTH: Tile = 000127, Process = 000000, Comm = put
(PID.TID 0000.0001) //                bi = 000007, bj = 000009
(PID.TID 0000.0001) // Tile number: 000113 (process no. = 000000)
(PID.TID 0000.0001) //        WEST: Tile = 000112, Process = 000000, Comm = put
(PID.TID 0000.0001) //                bi = 000007, bj = 000008
(PID.TID 0000.0001) //        EAST: Tile = 000114, Process = 000000, Comm = put
(PID.TID 0000.0001) //                bi = 000009, bj = 000008
(PID.TID 0000.0001) //       SOUTH: Tile = 000098, Process = 000000, Comm = put
(PID.TID 0000.0001) //                bi = 000008, bj = 000007
(PID.TID 0000.0001) //       NORTH: Tile = 000128, Process = 000000, Comm = put
(PID.TID 0000.0001) //                bi = 000008, bj = 000009
(PID.TID 0000.0001) // Tile number: 000114 (process no. = 000000)
(PID.TID 0000.0001) //        WEST: Tile = 000113, Process = 000000, Comm = put
(PID.TID 0000.0001) //                bi = 000008, bj = 000008
(PID.TID 0000.0001) //        EAST: Tile = 000115, Process = 000000, Comm = put
(PID.TID 0000.0001) //                bi = 000010, bj = 000008
(PID.TID 0000.0001) //       SOUTH: Tile = 000099, Process = 000000, Comm = put
(PID.TID 0000.0001) //                bi = 000009, bj = 000007
(PID.TID 0000.0001) //       NORTH: Tile = 000129, Process = 000000, Comm = put
(PID.TID 0000.0001) //                bi = 000009, bj = 000009
(PID.TID 0000.0001) // Tile number: 000115 (process no. = 000000)
(PID.TID 0000.0001) //        WEST: Tile = 000114, Process = 000000, Comm = put
(PID.TID 0000.0001) //                bi = 000009, bj = 000008
(PID.TID 0000.0001) //        EAST: Tile = 000116, Process = 000000, Comm = put
(PID.TID 0000.0001) //                bi = 000011, bj = 000008
(PID.TID 0000.0001) //       SOUTH: Tile = 000100, Process = 000000, Comm = put
(PID.TID 0000.0001) //                bi = 000010, bj = 000007
(PID.TID 0000.0001) //       NORTH: Tile = 000130, Process = 000000, Comm = put
(PID.TID 0000.0001) //                bi = 000010, bj = 000009
(PID.TID 0000.0001) // Tile number: 000116 (process no. = 000000)
(PID.TID 0000.0001) //        WEST: Tile = 000115, Process = 000000, Comm = put
(PID.TID 0000.0001) //                bi = 000010, bj = 000008
(PID.TID 0000.0001) //        EAST: Tile = 000117, Process = 000000, Comm = put
(PID.TID 0000.0001) //                bi = 000012, bj = 000008
(PID.TID 0000.0001) //       SOUTH: Tile = 000101, Process = 000000, Comm = put
(PID.TID 0000.0001) //                bi = 000011, bj = 000007
(PID.TID 0000.0001) //       NORTH: Tile = 000131, Process = 000000, Comm = put
(PID.TID 0000.0001) //                bi = 000011, bj = 000009
(PID.TID 0000.0001) // Tile number: 000117 (process no. = 000000)
(PID.TID 0000.0001) //        WEST: Tile = 000116, Process = 000000, Comm = put
(PID.TID 0000.0001) //                bi = 000011, bj = 000008
(PID.TID 0000.0001) //        EAST: Tile = 000118, Process = 000000, Comm = put
(PID.TID 0000.0001) //                bi = 000013, bj = 000008
(PID.TID 0000.0001) //       SOUTH: Tile = 000102, Process = 000000, Comm = put
(PID.TID 0000.0001) //                bi = 000012, bj = 000007
(PID.TID 0000.0001) //       NORTH: Tile = 000132, Process = 000000, Comm = put
(PID.TID 0000.0001) //                bi = 000012, bj = 000009
(PID.TID 0000.0001) // Tile number: 000118 (process no. = 000000)
(PID.TID 0000.0001) //        WEST: Tile = 000117, Process = 000000, Comm = put
(PID.TID 0000.0001) //                bi = 000012, bj = 000008
(PID.TID 0000.0001) //        EAST: Tile = 000119, Process = 000000, Comm = put
(PID.TID 0000.0001) //                bi = 000014, bj = 000008
(PID.TID 0000.0001) //       SOUTH: Tile = 000103, Process = 000000, Comm = put
(PID.TID 0000.0001) //                bi = 000013, bj = 000007
(PID.TID 0000.0001) //       NORTH: Tile = 000133, Process = 000000, Comm = put
(PID.TID 0000.0001) //                bi = 000013, bj = 000009
(PID.TID 0000.0001) // Tile number: 000119 (process no. = 000000)
(PID.TID 0000.0001) //        WEST: Tile = 000118, Process = 000000, Comm = put
(PID.TID 0000.0001) //                bi = 000013, bj = 000008
(PID.TID 0000.0001) //        EAST: Tile = 000120, Process = 000000, Comm = put
(PID.TID 0000.0001) //                bi = 000015, bj = 000008
(PID.TID 0000.0001) //       SOUTH: Tile = 000104, Process = 000000, Comm = put
(PID.TID 0000.0001) //                bi = 000014, bj = 000007
(PID.TID 0000.0001) //       NORTH: Tile = 000134, Process = 000000, Comm = put
(PID.TID 0000.0001) //                bi = 000014, bj = 000009
(PID.TID 0000.0001) // Tile number: 000120 (process no. = 000000)
(PID.TID 0000.0001) //        WEST: Tile = 000119, Process = 000000, Comm = put
(PID.TID 0000.0001) //                bi = 000014, bj = 000008
(PID.TID 0000.0001) //        EAST: Tile = 000106, Process = 000000, Comm = put
(PID.TID 0000.0001) //                bi = 000001, bj = 000008
(PID.TID 0000.0001) //       SOUTH: Tile = 000105, Process = 000000, Comm = put
(PID.TID 0000.0001) //                bi = 000015, bj = 000007
(PID.TID 0000.0001) //       NORTH: Tile = 000135, Process = 000000, Comm = put
(PID.TID 0000.0001) //                bi = 000015, bj = 000009
(PID.TID 0000.0001) // Tile number: 000121 (process no. = 000000)
(PID.TID 0000.0001) //        WEST: Tile = 000135, Process = 000000, Comm = put
(PID.TID 0000.0001) //                bi = 000015, bj = 000009
(PID.TID 0000.0001) //        EAST: Tile = 000122, Process = 000000, Comm = put
(PID.TID 0000.0001) //                bi = 000002, bj = 000009
(PID.TID 0000.0001) //       SOUTH: Tile = 000106, Process = 000000, Comm = put
(PID.TID 0000.0001) //                bi = 000001, bj = 000008
(PID.TID 0000.0001) //       NORTH: Tile = 000136, Process = 000000, Comm = put
(PID.TID 0000.0001) //                bi = 000001, bj = 000010
(PID.TID 0000.0001) // Tile number: 000122 (process no. = 000000)
(PID.TID 0000.0001) //        WEST: Tile = 000121, Process = 000000, Comm = put
(PID.TID 0000.0001) //                bi = 000001, bj = 000009
(PID.TID 0000.0001) //        EAST: Tile = 000123, Process = 000000, Comm = put
(PID.TID 0000.0001) //                bi = 000003, bj = 000009
(PID.TID 0000.0001) //       SOUTH: Tile = 000107, Process = 000000, Comm = put
(PID.TID 0000.0001) //                bi = 000002, bj = 000008
(PID.TID 0000.0001) //       NORTH: Tile = 000137, Process = 000000, Comm = put
(PID.TID 0000.0001) //                bi = 000002, bj = 000010
(PID.TID 0000.0001) // Tile number: 000123 (process no. = 000000)
(PID.TID 0000.0001) //        WEST: Tile = 000122, Process = 000000, Comm = put
(PID.TID 0000.0001) //                bi = 000002, bj = 000009
(PID.TID 0000.0001) //        EAST: Tile = 000124, Process = 000000, Comm = put
(PID.TID 0000.0001) //                bi = 000004, bj = 000009
(PID.TID 0000.0001) //       SOUTH: Tile = 000108, Process = 000000, Comm = put
(PID.TID 0000.0001) //                bi = 000003, bj = 000008
(PID.TID 0000.0001) //       NORTH: Tile = 000138, Process = 000000, Comm = put
(PID.TID 0000.0001) //                bi = 000003, bj = 000010
(PID.TID 0000.0001) // Tile number: 000124 (process no. = 000000)
(PID.TID 0000.0001) //        WEST: Tile = 000123, Process = 000000, Comm = put
(PID.TID 0000.0001) //                bi = 000003, bj = 000009
(PID.TID 0000.0001) //        EAST: Tile = 000125, Process = 000000, Comm = put
(PID.TID 0000.0001) //                bi = 000005, bj = 000009
(PID.TID 0000.0001) //       SOUTH: Tile = 000109, Process = 000000, Comm = put
(PID.TID 0000.0001) //                bi = 000004, bj = 000008
(PID.TID 0000.0001) //       NORTH: Tile = 000139, Process = 000000, Comm = put
(PID.TID 0000.0001) //                bi = 000004, bj = 000010
(PID.TID 0000.0001) // Tile number: 000125 (process no. = 000000)
(PID.TID 0000.0001) //        WEST: Tile = 000124, Process = 000000, Comm = put
(PID.TID 0000.0001) //                bi = 000004, bj = 000009
(PID.TID 0000.0001) //        EAST: Tile = 000126, Process = 000000, Comm = put
(PID.TID 0000.0001) //                bi = 000006, bj = 000009
(PID.TID 0000.0001) //       SOUTH: Tile = 000110, Process = 000000, Comm = put
(PID.TID 0000.0001) //                bi = 000005, bj = 000008
(PID.TID 0000.0001) //       NORTH: Tile = 000140, Process = 000000, Comm = put
(PID.TID 0000.0001) //                bi = 000005, bj = 000010
(PID.TID 0000.0001) // Tile number: 000126 (process no. = 000000)
(PID.TID 0000.0001) //        WEST: Tile = 000125, Process = 000000, Comm = put
(PID.TID 0000.0001) //                bi = 000005, bj = 000009
(PID.TID 0000.0001) //        EAST: Tile = 000127, Process = 000000, Comm = put
(PID.TID 0000.0001) //                bi = 000007, bj = 000009
(PID.TID 0000.0001) //       SOUTH: Tile = 000111, Process = 000000, Comm = put
(PID.TID 0000.0001) //                bi = 000006, bj = 000008
(PID.TID 0000.0001) //       NORTH: Tile = 000141, Process = 000000, Comm = put
(PID.TID 0000.0001) //                bi = 000006, bj = 000010
(PID.TID 0000.0001) // Tile number: 000127 (process no. = 000000)
(PID.TID 0000.0001) //        WEST: Tile = 000126, Process = 000000, Comm = put
(PID.TID 0000.0001) //                bi = 000006, bj = 000009
(PID.TID 0000.0001) //        EAST: Tile = 000128, Process = 000000, Comm = put
(PID.TID 0000.0001) //                bi = 000008, bj = 000009
(PID.TID 0000.0001) //       SOUTH: Tile = 000112, Process = 000000, Comm = put
(PID.TID 0000.0001) //                bi = 000007, bj = 000008
(PID.TID 0000.0001) //       NORTH: Tile = 000142, Process = 000000, Comm = put
(PID.TID 0000.0001) //                bi = 000007, bj = 000010
(PID.TID 0000.0001) // Tile number: 000128 (process no. = 000000)
(PID.TID 0000.0001) //        WEST: Tile = 000127, Process = 000000, Comm = put
(PID.TID 0000.0001) //                bi = 000007, bj = 000009
(PID.TID 0000.0001) //        EAST: Tile = 000129, Process = 000000, Comm = put
(PID.TID 0000.0001) //                bi = 000009, bj = 000009
(PID.TID 0000.0001) //       SOUTH: Tile = 000113, Process = 000000, Comm = put
(PID.TID 0000.0001) //                bi = 000008, bj = 000008
(PID.TID 0000.0001) //       NORTH: Tile = 000143, Process = 000000, Comm = put
(PID.TID 0000.0001) //                bi = 000008, bj = 000010
(PID.TID 0000.0001) // Tile number: 000129 (process no. = 000000)
(PID.TID 0000.0001) //        WEST: Tile = 000128, Process = 000000, Comm = put
(PID.TID 0000.0001) //                bi = 000008, bj = 000009
(PID.TID 0000.0001) //        EAST: Tile = 000130, Process = 000000, Comm = put
(PID.TID 0000.0001) //                bi = 000010, bj = 000009
(PID.TID 0000.0001) //       SOUTH: Tile = 000114, Process = 000000, Comm = put
(PID.TID 0000.0001) //                bi = 000009, bj = 000008
(PID.TID 0000.0001) //       NORTH: Tile = 000144, Process = 000000, Comm = put
(PID.TID 0000.0001) //                bi = 000009, bj = 000010
(PID.TID 0000.0001) // Tile number: 000130 (process no. = 000000)
(PID.TID 0000.0001) //        WEST: Tile = 000129, Process = 000000, Comm = put
(PID.TID 0000.0001) //                bi = 000009, bj = 000009
(PID.TID 0000.0001) //        EAST: Tile = 000131, Process = 000000, Comm = put
(PID.TID 0000.0001) //                bi = 000011, bj = 000009
(PID.TID 0000.0001) //       SOUTH: Tile = 000115, Process = 000000, Comm = put
(PID.TID 0000.0001) //                bi = 000010, bj = 000008
(PID.TID 0000.0001) //       NORTH: Tile = 000145, Process = 000000, Comm = put
(PID.TID 0000.0001) //                bi = 000010, bj = 000010
(PID.TID 0000.0001) // Tile number: 000131 (process no. = 000000)
(PID.TID 0000.0001) //        WEST: Tile = 000130, Process = 000000, Comm = put
(PID.TID 0000.0001) //                bi = 000010, bj = 000009
(PID.TID 0000.0001) //        EAST: Tile = 000132, Process = 000000, Comm = put
(PID.TID 0000.0001) //                bi = 000012, bj = 000009
(PID.TID 0000.0001) //       SOUTH: Tile = 000116, Process = 000000, Comm = put
(PID.TID 0000.0001) //                bi = 000011, bj = 000008
(PID.TID 0000.0001) //       NORTH: Tile = 000146, Process = 000000, Comm = put
(PID.TID 0000.0001) //                bi = 000011, bj = 000010
(PID.TID 0000.0001) // Tile number: 000132 (process no. = 000000)
(PID.TID 0000.0001) //        WEST: Tile = 000131, Process = 000000, Comm = put
(PID.TID 0000.0001) //                bi = 000011, bj = 000009
(PID.TID 0000.0001) //        EAST: Tile = 000133, Process = 000000, Comm = put
(PID.TID 0000.0001) //                bi = 000013, bj = 000009
(PID.TID 0000.0001) //       SOUTH: Tile = 000117, Process = 000000, Comm = put
(PID.TID 0000.0001) //                bi = 000012, bj = 000008
(PID.TID 0000.0001) //       NORTH: Tile = 000147, Process = 000000, Comm = put
(PID.TID 0000.0001) //                bi = 000012, bj = 000010
(PID.TID 0000.0001) // Tile number: 000133 (process no. = 000000)
(PID.TID 0000.0001) //        WEST: Tile = 000132, Process = 000000, Comm = put
(PID.TID 0000.0001) //                bi = 000012, bj = 000009
(PID.TID 0000.0001) //        EAST: Tile = 000134, Process = 000000, Comm = put
(PID.TID 0000.0001) //                bi = 000014, bj = 000009
(PID.TID 0000.0001) //       SOUTH: Tile = 000118, Process = 000000, Comm = put
(PID.TID 0000.0001) //                bi = 000013, bj = 000008
(PID.TID 0000.0001) //       NORTH: Tile = 000148, Process = 000000, Comm = put
(PID.TID 0000.0001) //                bi = 000013, bj = 000010
(PID.TID 0000.0001) // Tile number: 000134 (process no. = 000000)
(PID.TID 0000.0001) //        WEST: Tile = 000133, Process = 000000, Comm = put
(PID.TID 0000.0001) //                bi = 000013, bj = 000009
(PID.TID 0000.0001) //        EAST: Tile = 000135, Process = 000000, Comm = put
(PID.TID 0000.0001) //                bi = 000015, bj = 000009
(PID.TID 0000.0001) //       SOUTH: Tile = 000119, Process = 000000, Comm = put
(PID.TID 0000.0001) //                bi = 000014, bj = 000008
(PID.TID 0000.0001) //       NORTH: Tile = 000149, Process = 000000, Comm = put
(PID.TID 0000.0001) //                bi = 000014, bj = 000010
(PID.TID 0000.0001) // Tile number: 000135 (process no. = 000000)
(PID.TID 0000.0001) //        WEST: Tile = 000134, Process = 000000, Comm = put
(PID.TID 0000.0001) //                bi = 000014, bj = 000009
(PID.TID 0000.0001) //        EAST: Tile = 000121, Process = 000000, Comm = put
(PID.TID 0000.0001) //                bi = 000001, bj = 000009
(PID.TID 0000.0001) //       SOUTH: Tile = 000120, Process = 000000, Comm = put
(PID.TID 0000.0001) //                bi = 000015, bj = 000008
(PID.TID 0000.0001) //       NORTH: Tile = 000150, Process = 000000, Comm = put
(PID.TID 0000.0001) //                bi = 000015, bj = 000010
(PID.TID 0000.0001) // Tile number: 000136 (process no. = 000000)
(PID.TID 0000.0001) //        WEST: Tile = 000150, Process = 000000, Comm = put
(PID.TID 0000.0001) //                bi = 000015, bj = 000010
(PID.TID 0000.0001) //        EAST: Tile = 000137, Process = 000000, Comm = put
(PID.TID 0000.0001) //                bi = 000002, bj = 000010
(PID.TID 0000.0001) //       SOUTH: Tile = 000121, Process = 000000, Comm = put
(PID.TID 0000.0001) //                bi = 000001, bj = 000009
(PID.TID 0000.0001) //       NORTH: Tile = 000151, Process = 000000, Comm = put
(PID.TID 0000.0001) //                bi = 000001, bj = 000011
(PID.TID 0000.0001) // Tile number: 000137 (process no. = 000000)
(PID.TID 0000.0001) //        WEST: Tile = 000136, Process = 000000, Comm = put
(PID.TID 0000.0001) //                bi = 000001, bj = 000010
(PID.TID 0000.0001) //        EAST: Tile = 000138, Process = 000000, Comm = put
(PID.TID 0000.0001) //                bi = 000003, bj = 000010
(PID.TID 0000.0001) //       SOUTH: Tile = 000122, Process = 000000, Comm = put
(PID.TID 0000.0001) //                bi = 000002, bj = 000009
(PID.TID 0000.0001) //       NORTH: Tile = 000152, Process = 000000, Comm = put
(PID.TID 0000.0001) //                bi = 000002, bj = 000011
(PID.TID 0000.0001) // Tile number: 000138 (process no. = 000000)
(PID.TID 0000.0001) //        WEST: Tile = 000137, Process = 000000, Comm = put
(PID.TID 0000.0001) //                bi = 000002, bj = 000010
(PID.TID 0000.0001) //        EAST: Tile = 000139, Process = 000000, Comm = put
(PID.TID 0000.0001) //                bi = 000004, bj = 000010
(PID.TID 0000.0001) //       SOUTH: Tile = 000123, Process = 000000, Comm = put
(PID.TID 0000.0001) //                bi = 000003, bj = 000009
(PID.TID 0000.0001) //       NORTH: Tile = 000153, Process = 000000, Comm = put
(PID.TID 0000.0001) //                bi = 000003, bj = 000011
(PID.TID 0000.0001) // Tile number: 000139 (process no. = 000000)
(PID.TID 0000.0001) //        WEST: Tile = 000138, Process = 000000, Comm = put
(PID.TID 0000.0001) //                bi = 000003, bj = 000010
(PID.TID 0000.0001) //        EAST: Tile = 000140, Process = 000000, Comm = put
(PID.TID 0000.0001) //                bi = 000005, bj = 000010
(PID.TID 0000.0001) //       SOUTH: Tile = 000124, Process = 000000, Comm = put
(PID.TID 0000.0001) //                bi = 000004, bj = 000009
(PID.TID 0000.0001) //       NORTH: Tile = 000154, Process = 000000, Comm = put
(PID.TID 0000.0001) //                bi = 000004, bj = 000011
(PID.TID 0000.0001) // Tile number: 000140 (process no. = 000000)
(PID.TID 0000.0001) //        WEST: Tile = 000139, Process = 000000, Comm = put
(PID.TID 0000.0001) //                bi = 000004, bj = 000010
(PID.TID 0000.0001) //        EAST: Tile = 000141, Process = 000000, Comm = put
(PID.TID 0000.0001) //                bi = 000006, bj = 000010
(PID.TID 0000.0001) //       SOUTH: Tile = 000125, Process = 000000, Comm = put
(PID.TID 0000.0001) //                bi = 000005, bj = 000009
(PID.TID 0000.0001) //       NORTH: Tile = 000155, Process = 000000, Comm = put
(PID.TID 0000.0001) //                bi = 000005, bj = 000011
(PID.TID 0000.0001) // Tile number: 000141 (process no. = 000000)
(PID.TID 0000.0001) //        WEST: Tile = 000140, Process = 000000, Comm = put
(PID.TID 0000.0001) //                bi = 000005, bj = 000010
(PID.TID 0000.0001) //        EAST: Tile = 000142, Process = 000000, Comm = put
(PID.TID 0000.0001) //                bi = 000007, bj = 000010
(PID.TID 0000.0001) //       SOUTH: Tile = 000126, Process = 000000, Comm = put
(PID.TID 0000.0001) //                bi = 000006, bj = 000009
(PID.TID 0000.0001) //       NORTH: Tile = 000156, Process = 000000, Comm = put
(PID.TID 0000.0001) //                bi = 000006, bj = 000011
(PID.TID 0000.0001) // Tile number: 000142 (process no. = 000000)
(PID.TID 0000.0001) //        WEST: Tile = 000141, Process = 000000, Comm = put
(PID.TID 0000.0001) //                bi = 000006, bj = 000010
(PID.TID 0000.0001) //        EAST: Tile = 000143, Process = 000000, Comm = put
(PID.TID 0000.0001) //                bi = 000008, bj = 000010
(PID.TID 0000.0001) //       SOUTH: Tile = 000127, Process = 000000, Comm = put
(PID.TID 0000.0001) //                bi = 000007, bj = 000009
(PID.TID 0000.0001) //       NORTH: Tile = 000157, Process = 000000, Comm = put
(PID.TID 0000.0001) //                bi = 000007, bj = 000011
(PID.TID 0000.0001) // Tile number: 000143 (process no. = 000000)
(PID.TID 0000.0001) //        WEST: Tile = 000142, Process = 000000, Comm = put
(PID.TID 0000.0001) //                bi = 000007, bj = 000010
(PID.TID 0000.0001) //        EAST: Tile = 000144, Process = 000000, Comm = put
(PID.TID 0000.0001) //                bi = 000009, bj = 000010
(PID.TID 0000.0001) //       SOUTH: Tile = 000128, Process = 000000, Comm = put
(PID.TID 0000.0001) //                bi = 000008, bj = 000009
(PID.TID 0000.0001) //       NORTH: Tile = 000158, Process = 000000, Comm = put
(PID.TID 0000.0001) //                bi = 000008, bj = 000011
(PID.TID 0000.0001) // Tile number: 000144 (process no. = 000000)
(PID.TID 0000.0001) //        WEST: Tile = 000143, Process = 000000, Comm = put
(PID.TID 0000.0001) //                bi = 000008, bj = 000010
(PID.TID 0000.0001) //        EAST: Tile = 000145, Process = 000000, Comm = put
(PID.TID 0000.0001) //                bi = 000010, bj = 000010
(PID.TID 0000.0001) //       SOUTH: Tile = 000129, Process = 000000, Comm = put
(PID.TID 0000.0001) //                bi = 000009, bj = 000009
(PID.TID 0000.0001) //       NORTH: Tile = 000159, Process = 000000, Comm = put
(PID.TID 0000.0001) //                bi = 000009, bj = 000011
(PID.TID 0000.0001) // Tile number: 000145 (process no. = 000000)
(PID.TID 0000.0001) //        WEST: Tile = 000144, Process = 000000, Comm = put
(PID.TID 0000.0001) //                bi = 000009, bj = 000010
(PID.TID 0000.0001) //        EAST: Tile = 000146, Process = 000000, Comm = put
(PID.TID 0000.0001) //                bi = 000011, bj = 000010
(PID.TID 0000.0001) //       SOUTH: Tile = 000130, Process = 000000, Comm = put
(PID.TID 0000.0001) //                bi = 000010, bj = 000009
(PID.TID 0000.0001) //       NORTH: Tile = 000160, Process = 000000, Comm = put
(PID.TID 0000.0001) //                bi = 000010, bj = 000011
(PID.TID 0000.0001) // Tile number: 000146 (process no. = 000000)
(PID.TID 0000.0001) //        WEST: Tile = 000145, Process = 000000, Comm = put
(PID.TID 0000.0001) //                bi = 000010, bj = 000010
(PID.TID 0000.0001) //        EAST: Tile = 000147, Process = 000000, Comm = put
(PID.TID 0000.0001) //                bi = 000012, bj = 000010
(PID.TID 0000.0001) //       SOUTH: Tile = 000131, Process = 000000, Comm = put
(PID.TID 0000.0001) //                bi = 000011, bj = 000009
(PID.TID 0000.0001) //       NORTH: Tile = 000161, Process = 000000, Comm = put
(PID.TID 0000.0001) //                bi = 000011, bj = 000011
(PID.TID 0000.0001) // Tile number: 000147 (process no. = 000000)
(PID.TID 0000.0001) //        WEST: Tile = 000146, Process = 000000, Comm = put
(PID.TID 0000.0001) //                bi = 000011, bj = 000010
(PID.TID 0000.0001) //        EAST: Tile = 000148, Process = 000000, Comm = put
(PID.TID 0000.0001) //                bi = 000013, bj = 000010
(PID.TID 0000.0001) //       SOUTH: Tile = 000132, Process = 000000, Comm = put
(PID.TID 0000.0001) //                bi = 000012, bj = 000009
(PID.TID 0000.0001) //       NORTH: Tile = 000162, Process = 000000, Comm = put
(PID.TID 0000.0001) //                bi = 000012, bj = 000011
(PID.TID 0000.0001) // Tile number: 000148 (process no. = 000000)
(PID.TID 0000.0001) //        WEST: Tile = 000147, Process = 000000, Comm = put
(PID.TID 0000.0001) //                bi = 000012, bj = 000010
(PID.TID 0000.0001) //        EAST: Tile = 000149, Process = 000000, Comm = put
(PID.TID 0000.0001) //                bi = 000014, bj = 000010
(PID.TID 0000.0001) //       SOUTH: Tile = 000133, Process = 000000, Comm = put
(PID.TID 0000.0001) //                bi = 000013, bj = 000009
(PID.TID 0000.0001) //       NORTH: Tile = 000163, Process = 000000, Comm = put
(PID.TID 0000.0001) //                bi = 000013, bj = 000011
(PID.TID 0000.0001) // Tile number: 000149 (process no. = 000000)
(PID.TID 0000.0001) //        WEST: Tile = 000148, Process = 000000, Comm = put
(PID.TID 0000.0001) //                bi = 000013, bj = 000010
(PID.TID 0000.0001) //        EAST: Tile = 000150, Process = 000000, Comm = put
(PID.TID 0000.0001) //                bi = 000015, bj = 000010
(PID.TID 0000.0001) //       SOUTH: Tile = 000134, Process = 000000, Comm = put
(PID.TID 0000.0001) //                bi = 000014, bj = 000009
(PID.TID 0000.0001) //       NORTH: Tile = 000164, Process = 000000, Comm = put
(PID.TID 0000.0001) //                bi = 000014, bj = 000011
(PID.TID 0000.0001) // Tile number: 000150 (process no. = 000000)
(PID.TID 0000.0001) //        WEST: Tile = 000149, Process = 000000, Comm = put
(PID.TID 0000.0001) //                bi = 000014, bj = 000010
(PID.TID 0000.0001) //        EAST: Tile = 000136, Process = 000000, Comm = put
(PID.TID 0000.0001) //                bi = 000001, bj = 000010
(PID.TID 0000.0001) //       SOUTH: Tile = 000135, Process = 000000, Comm = put
(PID.TID 0000.0001) //                bi = 000015, bj = 000009
(PID.TID 0000.0001) //       NORTH: Tile = 000165, Process = 000000, Comm = put
(PID.TID 0000.0001) //                bi = 000015, bj = 000011
(PID.TID 0000.0001) // Tile number: 000151 (process no. = 000000)
(PID.TID 0000.0001) //        WEST: Tile = 000165, Process = 000000, Comm = put
(PID.TID 0000.0001) //                bi = 000015, bj = 000011
(PID.TID 0000.0001) //        EAST: Tile = 000152, Process = 000000, Comm = put
(PID.TID 0000.0001) //                bi = 000002, bj = 000011
(PID.TID 0000.0001) //       SOUTH: Tile = 000136, Process = 000000, Comm = put
(PID.TID 0000.0001) //                bi = 000001, bj = 000010
(PID.TID 0000.0001) //       NORTH: Tile = 000166, Process = 000000, Comm = put
(PID.TID 0000.0001) //                bi = 000001, bj = 000012
(PID.TID 0000.0001) // Tile number: 000152 (process no. = 000000)
(PID.TID 0000.0001) //        WEST: Tile = 000151, Process = 000000, Comm = put
(PID.TID 0000.0001) //                bi = 000001, bj = 000011
(PID.TID 0000.0001) //        EAST: Tile = 000153, Process = 000000, Comm = put
(PID.TID 0000.0001) //                bi = 000003, bj = 000011
(PID.TID 0000.0001) //       SOUTH: Tile = 000137, Process = 000000, Comm = put
(PID.TID 0000.0001) //                bi = 000002, bj = 000010
(PID.TID 0000.0001) //       NORTH: Tile = 000167, Process = 000000, Comm = put
(PID.TID 0000.0001) //                bi = 000002, bj = 000012
(PID.TID 0000.0001) // Tile number: 000153 (process no. = 000000)
(PID.TID 0000.0001) //        WEST: Tile = 000152, Process = 000000, Comm = put
(PID.TID 0000.0001) //                bi = 000002, bj = 000011
(PID.TID 0000.0001) //        EAST: Tile = 000154, Process = 000000, Comm = put
(PID.TID 0000.0001) //                bi = 000004, bj = 000011
(PID.TID 0000.0001) //       SOUTH: Tile = 000138, Process = 000000, Comm = put
(PID.TID 0000.0001) //                bi = 000003, bj = 000010
(PID.TID 0000.0001) //       NORTH: Tile = 000168, Process = 000000, Comm = put
(PID.TID 0000.0001) //                bi = 000003, bj = 000012
(PID.TID 0000.0001) // Tile number: 000154 (process no. = 000000)
(PID.TID 0000.0001) //        WEST: Tile = 000153, Process = 000000, Comm = put
(PID.TID 0000.0001) //                bi = 000003, bj = 000011
(PID.TID 0000.0001) //        EAST: Tile = 000155, Process = 000000, Comm = put
(PID.TID 0000.0001) //                bi = 000005, bj = 000011
(PID.TID 0000.0001) //       SOUTH: Tile = 000139, Process = 000000, Comm = put
(PID.TID 0000.0001) //                bi = 000004, bj = 000010
(PID.TID 0000.0001) //       NORTH: Tile = 000169, Process = 000000, Comm = put
(PID.TID 0000.0001) //                bi = 000004, bj = 000012
(PID.TID 0000.0001) // Tile number: 000155 (process no. = 000000)
(PID.TID 0000.0001) //        WEST: Tile = 000154, Process = 000000, Comm = put
(PID.TID 0000.0001) //                bi = 000004, bj = 000011
(PID.TID 0000.0001) //        EAST: Tile = 000156, Process = 000000, Comm = put
(PID.TID 0000.0001) //                bi = 000006, bj = 000011
(PID.TID 0000.0001) //       SOUTH: Tile = 000140, Process = 000000, Comm = put
(PID.TID 0000.0001) //                bi = 000005, bj = 000010
(PID.TID 0000.0001) //       NORTH: Tile = 000170, Process = 000000, Comm = put
(PID.TID 0000.0001) //                bi = 000005, bj = 000012
(PID.TID 0000.0001) // Tile number: 000156 (process no. = 000000)
(PID.TID 0000.0001) //        WEST: Tile = 000155, Process = 000000, Comm = put
(PID.TID 0000.0001) //                bi = 000005, bj = 000011
(PID.TID 0000.0001) //        EAST: Tile = 000157, Process = 000000, Comm = put
(PID.TID 0000.0001) //                bi = 000007, bj = 000011
(PID.TID 0000.0001) //       SOUTH: Tile = 000141, Process = 000000, Comm = put
(PID.TID 0000.0001) //                bi = 000006, bj = 000010
(PID.TID 0000.0001) //       NORTH: Tile = 000171, Process = 000000, Comm = put
(PID.TID 0000.0001) //                bi = 000006, bj = 000012
(PID.TID 0000.0001) // Tile number: 000157 (process no. = 000000)
(PID.TID 0000.0001) //        WEST: Tile = 000156, Process = 000000, Comm = put
(PID.TID 0000.0001) //                bi = 000006, bj = 000011
(PID.TID 0000.0001) //        EAST: Tile = 000158, Process = 000000, Comm = put
(PID.TID 0000.0001) //                bi = 000008, bj = 000011
(PID.TID 0000.0001) //       SOUTH: Tile = 000142, Process = 000000, Comm = put
(PID.TID 0000.0001) //                bi = 000007, bj = 000010
(PID.TID 0000.0001) //       NORTH: Tile = 000172, Process = 000000, Comm = put
(PID.TID 0000.0001) //                bi = 000007, bj = 000012
(PID.TID 0000.0001) // Tile number: 000158 (process no. = 000000)
(PID.TID 0000.0001) //        WEST: Tile = 000157, Process = 000000, Comm = put
(PID.TID 0000.0001) //                bi = 000007, bj = 000011
(PID.TID 0000.0001) //        EAST: Tile = 000159, Process = 000000, Comm = put
(PID.TID 0000.0001) //                bi = 000009, bj = 000011
(PID.TID 0000.0001) //       SOUTH: Tile = 000143, Process = 000000, Comm = put
(PID.TID 0000.0001) //                bi = 000008, bj = 000010
(PID.TID 0000.0001) //       NORTH: Tile = 000173, Process = 000000, Comm = put
(PID.TID 0000.0001) //                bi = 000008, bj = 000012
(PID.TID 0000.0001) // Tile number: 000159 (process no. = 000000)
(PID.TID 0000.0001) //        WEST: Tile = 000158, Process = 000000, Comm = put
(PID.TID 0000.0001) //                bi = 000008, bj = 000011
(PID.TID 0000.0001) //        EAST: Tile = 000160, Process = 000000, Comm = put
(PID.TID 0000.0001) //                bi = 000010, bj = 000011
(PID.TID 0000.0001) //       SOUTH: Tile = 000144, Process = 000000, Comm = put
(PID.TID 0000.0001) //                bi = 000009, bj = 000010
(PID.TID 0000.0001) //       NORTH: Tile = 000174, Process = 000000, Comm = put
(PID.TID 0000.0001) //                bi = 000009, bj = 000012
(PID.TID 0000.0001) // Tile number: 000160 (process no. = 000000)
(PID.TID 0000.0001) //        WEST: Tile = 000159, Process = 000000, Comm = put
(PID.TID 0000.0001) //                bi = 000009, bj = 000011
(PID.TID 0000.0001) //        EAST: Tile = 000161, Process = 000000, Comm = put
(PID.TID 0000.0001) //                bi = 000011, bj = 000011
(PID.TID 0000.0001) //       SOUTH: Tile = 000145, Process = 000000, Comm = put
(PID.TID 0000.0001) //                bi = 000010, bj = 000010
(PID.TID 0000.0001) //       NORTH: Tile = 000175, Process = 000000, Comm = put
(PID.TID 0000.0001) //                bi = 000010, bj = 000012
(PID.TID 0000.0001) // Tile number: 000161 (process no. = 000000)
(PID.TID 0000.0001) //        WEST: Tile = 000160, Process = 000000, Comm = put
(PID.TID 0000.0001) //                bi = 000010, bj = 000011
(PID.TID 0000.0001) //        EAST: Tile = 000162, Process = 000000, Comm = put
(PID.TID 0000.0001) //                bi = 000012, bj = 000011
(PID.TID 0000.0001) //       SOUTH: Tile = 000146, Process = 000000, Comm = put
(PID.TID 0000.0001) //                bi = 000011, bj = 000010
(PID.TID 0000.0001) //       NORTH: Tile = 000176, Process = 000000, Comm = put
(PID.TID 0000.0001) //                bi = 000011, bj = 000012
(PID.TID 0000.0001) // Tile number: 000162 (process no. = 000000)
(PID.TID 0000.0001) //        WEST: Tile = 000161, Process = 000000, Comm = put
(PID.TID 0000.0001) //                bi = 000011, bj = 000011
(PID.TID 0000.0001) //        EAST: Tile = 000163, Process = 000000, Comm = put
(PID.TID 0000.0001) //                bi = 000013, bj = 000011
(PID.TID 0000.0001) //       SOUTH: Tile = 000147, Process = 000000, Comm = put
(PID.TID 0000.0001) //                bi = 000012, bj = 000010
(PID.TID 0000.0001) //       NORTH: Tile = 000177, Process = 000000, Comm = put
(PID.TID 0000.0001) //                bi = 000012, bj = 000012
(PID.TID 0000.0001) // Tile number: 000163 (process no. = 000000)
(PID.TID 0000.0001) //        WEST: Tile = 000162, Process = 000000, Comm = put
(PID.TID 0000.0001) //                bi = 000012, bj = 000011
(PID.TID 0000.0001) //        EAST: Tile = 000164, Process = 000000, Comm = put
(PID.TID 0000.0001) //                bi = 000014, bj = 000011
(PID.TID 0000.0001) //       SOUTH: Tile = 000148, Process = 000000, Comm = put
(PID.TID 0000.0001) //                bi = 000013, bj = 000010
(PID.TID 0000.0001) //       NORTH: Tile = 000178, Process = 000000, Comm = put
(PID.TID 0000.0001) //                bi = 000013, bj = 000012
(PID.TID 0000.0001) // Tile number: 000164 (process no. = 000000)
(PID.TID 0000.0001) //        WEST: Tile = 000163, Process = 000000, Comm = put
(PID.TID 0000.0001) //                bi = 000013, bj = 000011
(PID.TID 0000.0001) //        EAST: Tile = 000165, Process = 000000, Comm = put
(PID.TID 0000.0001) //                bi = 000015, bj = 000011
(PID.TID 0000.0001) //       SOUTH: Tile = 000149, Process = 000000, Comm = put
(PID.TID 0000.0001) //                bi = 000014, bj = 000010
(PID.TID 0000.0001) //       NORTH: Tile = 000179, Process = 000000, Comm = put
(PID.TID 0000.0001) //                bi = 000014, bj = 000012
(PID.TID 0000.0001) // Tile number: 000165 (process no. = 000000)
(PID.TID 0000.0001) //        WEST: Tile = 000164, Process = 000000, Comm = put
(PID.TID 0000.0001) //                bi = 000014, bj = 000011
(PID.TID 0000.0001) //        EAST: Tile = 000151, Process = 000000, Comm = put
(PID.TID 0000.0001) //                bi = 000001, bj = 000011
(PID.TID 0000.0001) //       SOUTH: Tile = 000150, Process = 000000, Comm = put
(PID.TID 0000.0001) //                bi = 000015, bj = 000010
(PID.TID 0000.0001) //       NORTH: Tile = 000180, Process = 000000, Comm = put
(PID.TID 0000.0001) //                bi = 000015, bj = 000012
(PID.TID 0000.0001) // Tile number: 000166 (process no. = 000000)
(PID.TID 0000.0001) //        WEST: Tile = 000180, Process = 000000, Comm = put
(PID.TID 0000.0001) //                bi = 000015, bj = 000012
(PID.TID 0000.0001) //        EAST: Tile = 000167, Process = 000000, Comm = put
(PID.TID 0000.0001) //                bi = 000002, bj = 000012
(PID.TID 0000.0001) //       SOUTH: Tile = 000151, Process = 000000, Comm = put
(PID.TID 0000.0001) //                bi = 000001, bj = 000011
(PID.TID 0000.0001) //       NORTH: Tile = 000181, Process = 000000, Comm = put
(PID.TID 0000.0001) //                bi = 000001, bj = 000013
(PID.TID 0000.0001) // Tile number: 000167 (process no. = 000000)
(PID.TID 0000.0001) //        WEST: Tile = 000166, Process = 000000, Comm = put
(PID.TID 0000.0001) //                bi = 000001, bj = 000012
(PID.TID 0000.0001) //        EAST: Tile = 000168, Process = 000000, Comm = put
(PID.TID 0000.0001) //                bi = 000003, bj = 000012
(PID.TID 0000.0001) //       SOUTH: Tile = 000152, Process = 000000, Comm = put
(PID.TID 0000.0001) //                bi = 000002, bj = 000011
(PID.TID 0000.0001) //       NORTH: Tile = 000182, Process = 000000, Comm = put
(PID.TID 0000.0001) //                bi = 000002, bj = 000013
(PID.TID 0000.0001) // Tile number: 000168 (process no. = 000000)
(PID.TID 0000.0001) //        WEST: Tile = 000167, Process = 000000, Comm = put
(PID.TID 0000.0001) //                bi = 000002, bj = 000012
(PID.TID 0000.0001) //        EAST: Tile = 000169, Process = 000000, Comm = put
(PID.TID 0000.0001) //                bi = 000004, bj = 000012
(PID.TID 0000.0001) //       SOUTH: Tile = 000153, Process = 000000, Comm = put
(PID.TID 0000.0001) //                bi = 000003, bj = 000011
(PID.TID 0000.0001) //       NORTH: Tile = 000183, Process = 000000, Comm = put
(PID.TID 0000.0001) //                bi = 000003, bj = 000013
(PID.TID 0000.0001) // Tile number: 000169 (process no. = 000000)
(PID.TID 0000.0001) //        WEST: Tile = 000168, Process = 000000, Comm = put
(PID.TID 0000.0001) //                bi = 000003, bj = 000012
(PID.TID 0000.0001) //        EAST: Tile = 000170, Process = 000000, Comm = put
(PID.TID 0000.0001) //                bi = 000005, bj = 000012
(PID.TID 0000.0001) //       SOUTH: Tile = 000154, Process = 000000, Comm = put
(PID.TID 0000.0001) //                bi = 000004, bj = 000011
(PID.TID 0000.0001) //       NORTH: Tile = 000184, Process = 000000, Comm = put
(PID.TID 0000.0001) //                bi = 000004, bj = 000013
(PID.TID 0000.0001) // Tile number: 000170 (process no. = 000000)
(PID.TID 0000.0001) //        WEST: Tile = 000169, Process = 000000, Comm = put
(PID.TID 0000.0001) //                bi = 000004, bj = 000012
(PID.TID 0000.0001) //        EAST: Tile = 000171, Process = 000000, Comm = put
(PID.TID 0000.0001) //                bi = 000006, bj = 000012
(PID.TID 0000.0001) //       SOUTH: Tile = 000155, Process = 000000, Comm = put
(PID.TID 0000.0001) //                bi = 000005, bj = 000011
(PID.TID 0000.0001) //       NORTH: Tile = 000185, Process = 000000, Comm = put
(PID.TID 0000.0001) //                bi = 000005, bj = 000013
(PID.TID 0000.0001) // Tile number: 000171 (process no. = 000000)
(PID.TID 0000.0001) //        WEST: Tile = 000170, Process = 000000, Comm = put
(PID.TID 0000.0001) //                bi = 000005, bj = 000012
(PID.TID 0000.0001) //        EAST: Tile = 000172, Process = 000000, Comm = put
(PID.TID 0000.0001) //                bi = 000007, bj = 000012
(PID.TID 0000.0001) //       SOUTH: Tile = 000156, Process = 000000, Comm = put
(PID.TID 0000.0001) //                bi = 000006, bj = 000011
(PID.TID 0000.0001) //       NORTH: Tile = 000186, Process = 000000, Comm = put
(PID.TID 0000.0001) //                bi = 000006, bj = 000013
(PID.TID 0000.0001) // Tile number: 000172 (process no. = 000000)
(PID.TID 0000.0001) //        WEST: Tile = 000171, Process = 000000, Comm = put
(PID.TID 0000.0001) //                bi = 000006, bj = 000012
(PID.TID 0000.0001) //        EAST: Tile = 000173, Process = 000000, Comm = put
(PID.TID 0000.0001) //                bi = 000008, bj = 000012
(PID.TID 0000.0001) //       SOUTH: Tile = 000157, Process = 000000, Comm = put
(PID.TID 0000.0001) //                bi = 000007, bj = 000011
(PID.TID 0000.0001) //       NORTH: Tile = 000187, Process = 000000, Comm = put
(PID.TID 0000.0001) //                bi = 000007, bj = 000013
(PID.TID 0000.0001) // Tile number: 000173 (process no. = 000000)
(PID.TID 0000.0001) //        WEST: Tile = 000172, Process = 000000, Comm = put
(PID.TID 0000.0001) //                bi = 000007, bj = 000012
(PID.TID 0000.0001) //        EAST: Tile = 000174, Process = 000000, Comm = put
(PID.TID 0000.0001) //                bi = 000009, bj = 000012
(PID.TID 0000.0001) //       SOUTH: Tile = 000158, Process = 000000, Comm = put
(PID.TID 0000.0001) //                bi = 000008, bj = 000011
(PID.TID 0000.0001) //       NORTH: Tile = 000188, Process = 000000, Comm = put
(PID.TID 0000.0001) //                bi = 000008, bj = 000013
(PID.TID 0000.0001) // Tile number: 000174 (process no. = 000000)
(PID.TID 0000.0001) //        WEST: Tile = 000173, Process = 000000, Comm = put
(PID.TID 0000.0001) //                bi = 000008, bj = 000012
(PID.TID 0000.0001) //        EAST: Tile = 000175, Process = 000000, Comm = put
(PID.TID 0000.0001) //                bi = 000010, bj = 000012
(PID.TID 0000.0001) //       SOUTH: Tile = 000159, Process = 000000, Comm = put
(PID.TID 0000.0001) //                bi = 000009, bj = 000011
(PID.TID 0000.0001) //       NORTH: Tile = 000189, Process = 000000, Comm = put
(PID.TID 0000.0001) //                bi = 000009, bj = 000013
(PID.TID 0000.0001) // Tile number: 000175 (process no. = 000000)
(PID.TID 0000.0001) //        WEST: Tile = 000174, Process = 000000, Comm = put
(PID.TID 0000.0001) //                bi = 000009, bj = 000012
(PID.TID 0000.0001) //        EAST: Tile = 000176, Process = 000000, Comm = put
(PID.TID 0000.0001) //                bi = 000011, bj = 000012
(PID.TID 0000.0001) //       SOUTH: Tile = 000160, Process = 000000, Comm = put
(PID.TID 0000.0001) //                bi = 000010, bj = 000011
(PID.TID 0000.0001) //       NORTH: Tile = 000190, Process = 000000, Comm = put
(PID.TID 0000.0001) //                bi = 000010, bj = 000013
(PID.TID 0000.0001) // Tile number: 000176 (process no. = 000000)
(PID.TID 0000.0001) //        WEST: Tile = 000175, Process = 000000, Comm = put
(PID.TID 0000.0001) //                bi = 000010, bj = 000012
(PID.TID 0000.0001) //        EAST: Tile = 000177, Process = 000000, Comm = put
(PID.TID 0000.0001) //                bi = 000012, bj = 000012
(PID.TID 0000.0001) //       SOUTH: Tile = 000161, Process = 000000, Comm = put
(PID.TID 0000.0001) //                bi = 000011, bj = 000011
(PID.TID 0000.0001) //       NORTH: Tile = 000191, Process = 000000, Comm = put
(PID.TID 0000.0001) //                bi = 000011, bj = 000013
(PID.TID 0000.0001) // Tile number: 000177 (process no. = 000000)
(PID.TID 0000.0001) //        WEST: Tile = 000176, Process = 000000, Comm = put
(PID.TID 0000.0001) //                bi = 000011, bj = 000012
(PID.TID 0000.0001) //        EAST: Tile = 000178, Process = 000000, Comm = put
(PID.TID 0000.0001) //                bi = 000013, bj = 000012
(PID.TID 0000.0001) //       SOUTH: Tile = 000162, Process = 000000, Comm = put
(PID.TID 0000.0001) //                bi = 000012, bj = 000011
(PID.TID 0000.0001) //       NORTH: Tile = 000192, Process = 000000, Comm = put
(PID.TID 0000.0001) //                bi = 000012, bj = 000013
(PID.TID 0000.0001) // Tile number: 000178 (process no. = 000000)
(PID.TID 0000.0001) //        WEST: Tile = 000177, Process = 000000, Comm = put
(PID.TID 0000.0001) //                bi = 000012, bj = 000012
(PID.TID 0000.0001) //        EAST: Tile = 000179, Process = 000000, Comm = put
(PID.TID 0000.0001) //                bi = 000014, bj = 000012
(PID.TID 0000.0001) //       SOUTH: Tile = 000163, Process = 000000, Comm = put
(PID.TID 0000.0001) //                bi = 000013, bj = 000011
(PID.TID 0000.0001) //       NORTH: Tile = 000193, Process = 000000, Comm = put
(PID.TID 0000.0001) //                bi = 000013, bj = 000013
(PID.TID 0000.0001) // Tile number: 000179 (process no. = 000000)
(PID.TID 0000.0001) //        WEST: Tile = 000178, Process = 000000, Comm = put
(PID.TID 0000.0001) //                bi = 000013, bj = 000012
(PID.TID 0000.0001) //        EAST: Tile = 000180, Process = 000000, Comm = put
(PID.TID 0000.0001) //                bi = 000015, bj = 000012
(PID.TID 0000.0001) //       SOUTH: Tile = 000164, Process = 000000, Comm = put
(PID.TID 0000.0001) //                bi = 000014, bj = 000011
(PID.TID 0000.0001) //       NORTH: Tile = 000194, Process = 000000, Comm = put
(PID.TID 0000.0001) //                bi = 000014, bj = 000013
(PID.TID 0000.0001) // Tile number: 000180 (process no. = 000000)
(PID.TID 0000.0001) //        WEST: Tile = 000179, Process = 000000, Comm = put
(PID.TID 0000.0001) //                bi = 000014, bj = 000012
(PID.TID 0000.0001) //        EAST: Tile = 000166, Process = 000000, Comm = put
(PID.TID 0000.0001) //                bi = 000001, bj = 000012
(PID.TID 0000.0001) //       SOUTH: Tile = 000165, Process = 000000, Comm = put
(PID.TID 0000.0001) //                bi = 000015, bj = 000011
(PID.TID 0000.0001) //       NORTH: Tile = 000195, Process = 000000, Comm = put
(PID.TID 0000.0001) //                bi = 000015, bj = 000013
(PID.TID 0000.0001) // Tile number: 000181 (process no. = 000000)
(PID.TID 0000.0001) //        WEST: Tile = 000195, Process = 000000, Comm = put
(PID.TID 0000.0001) //                bi = 000015, bj = 000013
(PID.TID 0000.0001) //        EAST: Tile = 000182, Process = 000000, Comm = put
(PID.TID 0000.0001) //                bi = 000002, bj = 000013
(PID.TID 0000.0001) //       SOUTH: Tile = 000166, Process = 000000, Comm = put
(PID.TID 0000.0001) //                bi = 000001, bj = 000012
(PID.TID 0000.0001) //       NORTH: Tile = 000196, Process = 000000, Comm = put
(PID.TID 0000.0001) //                bi = 000001, bj = 000014
(PID.TID 0000.0001) // Tile number: 000182 (process no. = 000000)
(PID.TID 0000.0001) //        WEST: Tile = 000181, Process = 000000, Comm = put
(PID.TID 0000.0001) //                bi = 000001, bj = 000013
(PID.TID 0000.0001) //        EAST: Tile = 000183, Process = 000000, Comm = put
(PID.TID 0000.0001) //                bi = 000003, bj = 000013
(PID.TID 0000.0001) //       SOUTH: Tile = 000167, Process = 000000, Comm = put
(PID.TID 0000.0001) //                bi = 000002, bj = 000012
(PID.TID 0000.0001) //       NORTH: Tile = 000197, Process = 000000, Comm = put
(PID.TID 0000.0001) //                bi = 000002, bj = 000014
(PID.TID 0000.0001) // Tile number: 000183 (process no. = 000000)
(PID.TID 0000.0001) //        WEST: Tile = 000182, Process = 000000, Comm = put
(PID.TID 0000.0001) //                bi = 000002, bj = 000013
(PID.TID 0000.0001) //        EAST: Tile = 000184, Process = 000000, Comm = put
(PID.TID 0000.0001) //                bi = 000004, bj = 000013
(PID.TID 0000.0001) //       SOUTH: Tile = 000168, Process = 000000, Comm = put
(PID.TID 0000.0001) //                bi = 000003, bj = 000012
(PID.TID 0000.0001) //       NORTH: Tile = 000198, Process = 000000, Comm = put
(PID.TID 0000.0001) //                bi = 000003, bj = 000014
(PID.TID 0000.0001) // Tile number: 000184 (process no. = 000000)
(PID.TID 0000.0001) //        WEST: Tile = 000183, Process = 000000, Comm = put
(PID.TID 0000.0001) //                bi = 000003, bj = 000013
(PID.TID 0000.0001) //        EAST: Tile = 000185, Process = 000000, Comm = put
(PID.TID 0000.0001) //                bi = 000005, bj = 000013
(PID.TID 0000.0001) //       SOUTH: Tile = 000169, Process = 000000, Comm = put
(PID.TID 0000.0001) //                bi = 000004, bj = 000012
(PID.TID 0000.0001) //       NORTH: Tile = 000199, Process = 000000, Comm = put
(PID.TID 0000.0001) //                bi = 000004, bj = 000014
(PID.TID 0000.0001) // Tile number: 000185 (process no. = 000000)
(PID.TID 0000.0001) //        WEST: Tile = 000184, Process = 000000, Comm = put
(PID.TID 0000.0001) //                bi = 000004, bj = 000013
(PID.TID 0000.0001) //        EAST: Tile = 000186, Process = 000000, Comm = put
(PID.TID 0000.0001) //                bi = 000006, bj = 000013
(PID.TID 0000.0001) //       SOUTH: Tile = 000170, Process = 000000, Comm = put
(PID.TID 0000.0001) //                bi = 000005, bj = 000012
(PID.TID 0000.0001) //       NORTH: Tile = 000200, Process = 000000, Comm = put
(PID.TID 0000.0001) //                bi = 000005, bj = 000014
(PID.TID 0000.0001) // Tile number: 000186 (process no. = 000000)
(PID.TID 0000.0001) //        WEST: Tile = 000185, Process = 000000, Comm = put
(PID.TID 0000.0001) //                bi = 000005, bj = 000013
(PID.TID 0000.0001) //        EAST: Tile = 000187, Process = 000000, Comm = put
(PID.TID 0000.0001) //                bi = 000007, bj = 000013
(PID.TID 0000.0001) //       SOUTH: Tile = 000171, Process = 000000, Comm = put
(PID.TID 0000.0001) //                bi = 000006, bj = 000012
(PID.TID 0000.0001) //       NORTH: Tile = 000201, Process = 000000, Comm = put
(PID.TID 0000.0001) //                bi = 000006, bj = 000014
(PID.TID 0000.0001) // Tile number: 000187 (process no. = 000000)
(PID.TID 0000.0001) //        WEST: Tile = 000186, Process = 000000, Comm = put
(PID.TID 0000.0001) //                bi = 000006, bj = 000013
(PID.TID 0000.0001) //        EAST: Tile = 000188, Process = 000000, Comm = put
(PID.TID 0000.0001) //                bi = 000008, bj = 000013
(PID.TID 0000.0001) //       SOUTH: Tile = 000172, Process = 000000, Comm = put
(PID.TID 0000.0001) //                bi = 000007, bj = 000012
(PID.TID 0000.0001) //       NORTH: Tile = 000202, Process = 000000, Comm = put
(PID.TID 0000.0001) //                bi = 000007, bj = 000014
(PID.TID 0000.0001) // Tile number: 000188 (process no. = 000000)
(PID.TID 0000.0001) //        WEST: Tile = 000187, Process = 000000, Comm = put
(PID.TID 0000.0001) //                bi = 000007, bj = 000013
(PID.TID 0000.0001) //        EAST: Tile = 000189, Process = 000000, Comm = put
(PID.TID 0000.0001) //                bi = 000009, bj = 000013
(PID.TID 0000.0001) //       SOUTH: Tile = 000173, Process = 000000, Comm = put
(PID.TID 0000.0001) //                bi = 000008, bj = 000012
(PID.TID 0000.0001) //       NORTH: Tile = 000203, Process = 000000, Comm = put
(PID.TID 0000.0001) //                bi = 000008, bj = 000014
(PID.TID 0000.0001) // Tile number: 000189 (process no. = 000000)
(PID.TID 0000.0001) //        WEST: Tile = 000188, Process = 000000, Comm = put
(PID.TID 0000.0001) //                bi = 000008, bj = 000013
(PID.TID 0000.0001) //        EAST: Tile = 000190, Process = 000000, Comm = put
(PID.TID 0000.0001) //                bi = 000010, bj = 000013
(PID.TID 0000.0001) //       SOUTH: Tile = 000174, Process = 000000, Comm = put
(PID.TID 0000.0001) //                bi = 000009, bj = 000012
(PID.TID 0000.0001) //       NORTH: Tile = 000204, Process = 000000, Comm = put
(PID.TID 0000.0001) //                bi = 000009, bj = 000014
(PID.TID 0000.0001) // Tile number: 000190 (process no. = 000000)
(PID.TID 0000.0001) //        WEST: Tile = 000189, Process = 000000, Comm = put
(PID.TID 0000.0001) //                bi = 000009, bj = 000013
(PID.TID 0000.0001) //        EAST: Tile = 000191, Process = 000000, Comm = put
(PID.TID 0000.0001) //                bi = 000011, bj = 000013
(PID.TID 0000.0001) //       SOUTH: Tile = 000175, Process = 000000, Comm = put
(PID.TID 0000.0001) //                bi = 000010, bj = 000012
(PID.TID 0000.0001) //       NORTH: Tile = 000205, Process = 000000, Comm = put
(PID.TID 0000.0001) //                bi = 000010, bj = 000014
(PID.TID 0000.0001) // Tile number: 000191 (process no. = 000000)
(PID.TID 0000.0001) //        WEST: Tile = 000190, Process = 000000, Comm = put
(PID.TID 0000.0001) //                bi = 000010, bj = 000013
(PID.TID 0000.0001) //        EAST: Tile = 000192, Process = 000000, Comm = put
(PID.TID 0000.0001) //                bi = 000012, bj = 000013
(PID.TID 0000.0001) //       SOUTH: Tile = 000176, Process = 000000, Comm = put
(PID.TID 0000.0001) //                bi = 000011, bj = 000012
(PID.TID 0000.0001) //       NORTH: Tile = 000206, Process = 000000, Comm = put
(PID.TID 0000.0001) //                bi = 000011, bj = 000014
(PID.TID 0000.0001) // Tile number: 000192 (process no. = 000000)
(PID.TID 0000.0001) //        WEST: Tile = 000191, Process = 000000, Comm = put
(PID.TID 0000.0001) //                bi = 000011, bj = 000013
(PID.TID 0000.0001) //        EAST: Tile = 000193, Process = 000000, Comm = put
(PID.TID 0000.0001) //                bi = 000013, bj = 000013
(PID.TID 0000.0001) //       SOUTH: Tile = 000177, Process = 000000, Comm = put
(PID.TID 0000.0001) //                bi = 000012, bj = 000012
(PID.TID 0000.0001) //       NORTH: Tile = 000207, Process = 000000, Comm = put
(PID.TID 0000.0001) //                bi = 000012, bj = 000014
(PID.TID 0000.0001) // Tile number: 000193 (process no. = 000000)
(PID.TID 0000.0001) //        WEST: Tile = 000192, Process = 000000, Comm = put
(PID.TID 0000.0001) //                bi = 000012, bj = 000013
(PID.TID 0000.0001) //        EAST: Tile = 000194, Process = 000000, Comm = put
(PID.TID 0000.0001) //                bi = 000014, bj = 000013
(PID.TID 0000.0001) //       SOUTH: Tile = 000178, Process = 000000, Comm = put
(PID.TID 0000.0001) //                bi = 000013, bj = 000012
(PID.TID 0000.0001) //       NORTH: Tile = 000208, Process = 000000, Comm = put
(PID.TID 0000.0001) //                bi = 000013, bj = 000014
(PID.TID 0000.0001) // Tile number: 000194 (process no. = 000000)
(PID.TID 0000.0001) //        WEST: Tile = 000193, Process = 000000, Comm = put
(PID.TID 0000.0001) //                bi = 000013, bj = 000013
(PID.TID 0000.0001) //        EAST: Tile = 000195, Process = 000000, Comm = put
(PID.TID 0000.0001) //                bi = 000015, bj = 000013
(PID.TID 0000.0001) //       SOUTH: Tile = 000179, Process = 000000, Comm = put
(PID.TID 0000.0001) //                bi = 000014, bj = 000012
(PID.TID 0000.0001) //       NORTH: Tile = 000209, Process = 000000, Comm = put
(PID.TID 0000.0001) //                bi = 000014, bj = 000014
(PID.TID 0000.0001) // Tile number: 000195 (process no. = 000000)
(PID.TID 0000.0001) //        WEST: Tile = 000194, Process = 000000, Comm = put
(PID.TID 0000.0001) //                bi = 000014, bj = 000013
(PID.TID 0000.0001) //        EAST: Tile = 000181, Process = 000000, Comm = put
(PID.TID 0000.0001) //                bi = 000001, bj = 000013
(PID.TID 0000.0001) //       SOUTH: Tile = 000180, Process = 000000, Comm = put
(PID.TID 0000.0001) //                bi = 000015, bj = 000012
(PID.TID 0000.0001) //       NORTH: Tile = 000210, Process = 000000, Comm = put
(PID.TID 0000.0001) //                bi = 000015, bj = 000014
(PID.TID 0000.0001) // Tile number: 000196 (process no. = 000000)
(PID.TID 0000.0001) //        WEST: Tile = 000210, Process = 000000, Comm = put
(PID.TID 0000.0001) //                bi = 000015, bj = 000014
(PID.TID 0000.0001) //        EAST: Tile = 000197, Process = 000000, Comm = put
(PID.TID 0000.0001) //                bi = 000002, bj = 000014
(PID.TID 0000.0001) //       SOUTH: Tile = 000181, Process = 000000, Comm = put
(PID.TID 0000.0001) //                bi = 000001, bj = 000013
(PID.TID 0000.0001) //       NORTH: Tile = 000211, Process = 000000, Comm = put
(PID.TID 0000.0001) //                bi = 000001, bj = 000015
(PID.TID 0000.0001) // Tile number: 000197 (process no. = 000000)
(PID.TID 0000.0001) //        WEST: Tile = 000196, Process = 000000, Comm = put
(PID.TID 0000.0001) //                bi = 000001, bj = 000014
(PID.TID 0000.0001) //        EAST: Tile = 000198, Process = 000000, Comm = put
(PID.TID 0000.0001) //                bi = 000003, bj = 000014
(PID.TID 0000.0001) //       SOUTH: Tile = 000182, Process = 000000, Comm = put
(PID.TID 0000.0001) //                bi = 000002, bj = 000013
(PID.TID 0000.0001) //       NORTH: Tile = 000212, Process = 000000, Comm = put
(PID.TID 0000.0001) //                bi = 000002, bj = 000015
(PID.TID 0000.0001) // Tile number: 000198 (process no. = 000000)
(PID.TID 0000.0001) //        WEST: Tile = 000197, Process = 000000, Comm = put
(PID.TID 0000.0001) //                bi = 000002, bj = 000014
(PID.TID 0000.0001) //        EAST: Tile = 000199, Process = 000000, Comm = put
(PID.TID 0000.0001) //                bi = 000004, bj = 000014
(PID.TID 0000.0001) //       SOUTH: Tile = 000183, Process = 000000, Comm = put
(PID.TID 0000.0001) //                bi = 000003, bj = 000013
(PID.TID 0000.0001) //       NORTH: Tile = 000213, Process = 000000, Comm = put
(PID.TID 0000.0001) //                bi = 000003, bj = 000015
(PID.TID 0000.0001) // Tile number: 000199 (process no. = 000000)
(PID.TID 0000.0001) //        WEST: Tile = 000198, Process = 000000, Comm = put
(PID.TID 0000.0001) //                bi = 000003, bj = 000014
(PID.TID 0000.0001) //        EAST: Tile = 000200, Process = 000000, Comm = put
(PID.TID 0000.0001) //                bi = 000005, bj = 000014
(PID.TID 0000.0001) //       SOUTH: Tile = 000184, Process = 000000, Comm = put
(PID.TID 0000.0001) //                bi = 000004, bj = 000013
(PID.TID 0000.0001) //       NORTH: Tile = 000214, Process = 000000, Comm = put
(PID.TID 0000.0001) //                bi = 000004, bj = 000015
(PID.TID 0000.0001) // Tile number: 000200 (process no. = 000000)
(PID.TID 0000.0001) //        WEST: Tile = 000199, Process = 000000, Comm = put
(PID.TID 0000.0001) //                bi = 000004, bj = 000014
(PID.TID 0000.0001) //        EAST: Tile = 000201, Process = 000000, Comm = put
(PID.TID 0000.0001) //                bi = 000006, bj = 000014
(PID.TID 0000.0001) //       SOUTH: Tile = 000185, Process = 000000, Comm = put
(PID.TID 0000.0001) //                bi = 000005, bj = 000013
(PID.TID 0000.0001) //       NORTH: Tile = 000215, Process = 000000, Comm = put
(PID.TID 0000.0001) //                bi = 000005, bj = 000015
(PID.TID 0000.0001) // Tile number: 000201 (process no. = 000000)
(PID.TID 0000.0001) //        WEST: Tile = 000200, Process = 000000, Comm = put
(PID.TID 0000.0001) //                bi = 000005, bj = 000014
(PID.TID 0000.0001) //        EAST: Tile = 000202, Process = 000000, Comm = put
(PID.TID 0000.0001) //                bi = 000007, bj = 000014
(PID.TID 0000.0001) //       SOUTH: Tile = 000186, Process = 000000, Comm = put
(PID.TID 0000.0001) //                bi = 000006, bj = 000013
(PID.TID 0000.0001) //       NORTH: Tile = 000216, Process = 000000, Comm = put
(PID.TID 0000.0001) //                bi = 000006, bj = 000015
(PID.TID 0000.0001) // Tile number: 000202 (process no. = 000000)
(PID.TID 0000.0001) //        WEST: Tile = 000201, Process = 000000, Comm = put
(PID.TID 0000.0001) //                bi = 000006, bj = 000014
(PID.TID 0000.0001) //        EAST: Tile = 000203, Process = 000000, Comm = put
(PID.TID 0000.0001) //                bi = 000008, bj = 000014
(PID.TID 0000.0001) //       SOUTH: Tile = 000187, Process = 000000, Comm = put
(PID.TID 0000.0001) //                bi = 000007, bj = 000013
(PID.TID 0000.0001) //       NORTH: Tile = 000217, Process = 000000, Comm = put
(PID.TID 0000.0001) //                bi = 000007, bj = 000015
(PID.TID 0000.0001) // Tile number: 000203 (process no. = 000000)
(PID.TID 0000.0001) //        WEST: Tile = 000202, Process = 000000, Comm = put
(PID.TID 0000.0001) //                bi = 000007, bj = 000014
(PID.TID 0000.0001) //        EAST: Tile = 000204, Process = 000000, Comm = put
(PID.TID 0000.0001) //                bi = 000009, bj = 000014
(PID.TID 0000.0001) //       SOUTH: Tile = 000188, Process = 000000, Comm = put
(PID.TID 0000.0001) //                bi = 000008, bj = 000013
(PID.TID 0000.0001) //       NORTH: Tile = 000218, Process = 000000, Comm = put
(PID.TID 0000.0001) //                bi = 000008, bj = 000015
(PID.TID 0000.0001) // Tile number: 000204 (process no. = 000000)
(PID.TID 0000.0001) //        WEST: Tile = 000203, Process = 000000, Comm = put
(PID.TID 0000.0001) //                bi = 000008, bj = 000014
(PID.TID 0000.0001) //        EAST: Tile = 000205, Process = 000000, Comm = put
(PID.TID 0000.0001) //                bi = 000010, bj = 000014
(PID.TID 0000.0001) //       SOUTH: Tile = 000189, Process = 000000, Comm = put
(PID.TID 0000.0001) //                bi = 000009, bj = 000013
(PID.TID 0000.0001) //       NORTH: Tile = 000219, Process = 000000, Comm = put
(PID.TID 0000.0001) //                bi = 000009, bj = 000015
(PID.TID 0000.0001) // Tile number: 000205 (process no. = 000000)
(PID.TID 0000.0001) //        WEST: Tile = 000204, Process = 000000, Comm = put
(PID.TID 0000.0001) //                bi = 000009, bj = 000014
(PID.TID 0000.0001) //        EAST: Tile = 000206, Process = 000000, Comm = put
(PID.TID 0000.0001) //                bi = 000011, bj = 000014
(PID.TID 0000.0001) //       SOUTH: Tile = 000190, Process = 000000, Comm = put
(PID.TID 0000.0001) //                bi = 000010, bj = 000013
(PID.TID 0000.0001) //       NORTH: Tile = 000220, Process = 000000, Comm = put
(PID.TID 0000.0001) //                bi = 000010, bj = 000015
(PID.TID 0000.0001) // Tile number: 000206 (process no. = 000000)
(PID.TID 0000.0001) //        WEST: Tile = 000205, Process = 000000, Comm = put
(PID.TID 0000.0001) //                bi = 000010, bj = 000014
(PID.TID 0000.0001) //        EAST: Tile = 000207, Process = 000000, Comm = put
(PID.TID 0000.0001) //                bi = 000012, bj = 000014
(PID.TID 0000.0001) //       SOUTH: Tile = 000191, Process = 000000, Comm = put
(PID.TID 0000.0001) //                bi = 000011, bj = 000013
(PID.TID 0000.0001) //       NORTH: Tile = 000221, Process = 000000, Comm = put
(PID.TID 0000.0001) //                bi = 000011, bj = 000015
(PID.TID 0000.0001) // Tile number: 000207 (process no. = 000000)
(PID.TID 0000.0001) //        WEST: Tile = 000206, Process = 000000, Comm = put
(PID.TID 0000.0001) //                bi = 000011, bj = 000014
(PID.TID 0000.0001) //        EAST: Tile = 000208, Process = 000000, Comm = put
(PID.TID 0000.0001) //                bi = 000013, bj = 000014
(PID.TID 0000.0001) //       SOUTH: Tile = 000192, Process = 000000, Comm = put
(PID.TID 0000.0001) //                bi = 000012, bj = 000013
(PID.TID 0000.0001) //       NORTH: Tile = 000222, Process = 000000, Comm = put
(PID.TID 0000.0001) //                bi = 000012, bj = 000015
(PID.TID 0000.0001) // Tile number: 000208 (process no. = 000000)
(PID.TID 0000.0001) //        WEST: Tile = 000207, Process = 000000, Comm = put
(PID.TID 0000.0001) //                bi = 000012, bj = 000014
(PID.TID 0000.0001) //        EAST: Tile = 000209, Process = 000000, Comm = put
(PID.TID 0000.0001) //                bi = 000014, bj = 000014
(PID.TID 0000.0001) //       SOUTH: Tile = 000193, Process = 000000, Comm = put
(PID.TID 0000.0001) //                bi = 000013, bj = 000013
(PID.TID 0000.0001) //       NORTH: Tile = 000223, Process = 000000, Comm = put
(PID.TID 0000.0001) //                bi = 000013, bj = 000015
(PID.TID 0000.0001) // Tile number: 000209 (process no. = 000000)
(PID.TID 0000.0001) //        WEST: Tile = 000208, Process = 000000, Comm = put
(PID.TID 0000.0001) //                bi = 000013, bj = 000014
(PID.TID 0000.0001) //        EAST: Tile = 000210, Process = 000000, Comm = put
(PID.TID 0000.0001) //                bi = 000015, bj = 000014
(PID.TID 0000.0001) //       SOUTH: Tile = 000194, Process = 000000, Comm = put
(PID.TID 0000.0001) //                bi = 000014, bj = 000013
(PID.TID 0000.0001) //       NORTH: Tile = 000224, Process = 000000, Comm = put
(PID.TID 0000.0001) //                bi = 000014, bj = 000015
(PID.TID 0000.0001) // Tile number: 000210 (process no. = 000000)
(PID.TID 0000.0001) //        WEST: Tile = 000209, Process = 000000, Comm = put
(PID.TID 0000.0001) //                bi = 000014, bj = 000014
(PID.TID 0000.0001) //        EAST: Tile = 000196, Process = 000000, Comm = put
(PID.TID 0000.0001) //                bi = 000001, bj = 000014
(PID.TID 0000.0001) //       SOUTH: Tile = 000195, Process = 000000, Comm = put
(PID.TID 0000.0001) //                bi = 000015, bj = 000013
(PID.TID 0000.0001) //       NORTH: Tile = 000225, Process = 000000, Comm = put
(PID.TID 0000.0001) //                bi = 000015, bj = 000015
(PID.TID 0000.0001) // Tile number: 000211 (process no. = 000000)
(PID.TID 0000.0001) //        WEST: Tile = 000225, Process = 000000, Comm = put
(PID.TID 0000.0001) //                bi = 000015, bj = 000015
(PID.TID 0000.0001) //        EAST: Tile = 000212, Process = 000000, Comm = put
(PID.TID 0000.0001) //                bi = 000002, bj = 000015
(PID.TID 0000.0001) //       SOUTH: Tile = 000196, Process = 000000, Comm = put
(PID.TID 0000.0001) //                bi = 000001, bj = 000014
(PID.TID 0000.0001) //       NORTH: Tile = 000001, Process = 000000, Comm = put
(PID.TID 0000.0001) //                bi = 000001, bj = 000001
(PID.TID 0000.0001) // Tile number: 000212 (process no. = 000000)
(PID.TID 0000.0001) //        WEST: Tile = 000211, Process = 000000, Comm = put
(PID.TID 0000.0001) //                bi = 000001, bj = 000015
(PID.TID 0000.0001) //        EAST: Tile = 000213, Process = 000000, Comm = put
(PID.TID 0000.0001) //                bi = 000003, bj = 000015
(PID.TID 0000.0001) //       SOUTH: Tile = 000197, Process = 000000, Comm = put
(PID.TID 0000.0001) //                bi = 000002, bj = 000014
(PID.TID 0000.0001) //       NORTH: Tile = 000002, Process = 000000, Comm = put
(PID.TID 0000.0001) //                bi = 000002, bj = 000001
(PID.TID 0000.0001) // Tile number: 000213 (process no. = 000000)
(PID.TID 0000.0001) //        WEST: Tile = 000212, Process = 000000, Comm = put
(PID.TID 0000.0001) //                bi = 000002, bj = 000015
(PID.TID 0000.0001) //        EAST: Tile = 000214, Process = 000000, Comm = put
(PID.TID 0000.0001) //                bi = 000004, bj = 000015
(PID.TID 0000.0001) //       SOUTH: Tile = 000198, Process = 000000, Comm = put
(PID.TID 0000.0001) //                bi = 000003, bj = 000014
(PID.TID 0000.0001) //       NORTH: Tile = 000003, Process = 000000, Comm = put
(PID.TID 0000.0001) //                bi = 000003, bj = 000001
(PID.TID 0000.0001) // Tile number: 000214 (process no. = 000000)
(PID.TID 0000.0001) //        WEST: Tile = 000213, Process = 000000, Comm = put
(PID.TID 0000.0001) //                bi = 000003, bj = 000015
(PID.TID 0000.0001) //        EAST: Tile = 000215, Process = 000000, Comm = put
(PID.TID 0000.0001) //                bi = 000005, bj = 000015
(PID.TID 0000.0001) //       SOUTH: Tile = 000199, Process = 000000, Comm = put
(PID.TID 0000.0001) //                bi = 000004, bj = 000014
(PID.TID 0000.0001) //       NORTH: Tile = 000004, Process = 000000, Comm = put
(PID.TID 0000.0001) //                bi = 000004, bj = 000001
(PID.TID 0000.0001) // Tile number: 000215 (process no. = 000000)
(PID.TID 0000.0001) //        WEST: Tile = 000214, Process = 000000, Comm = put
(PID.TID 0000.0001) //                bi = 000004, bj = 000015
(PID.TID 0000.0001) //        EAST: Tile = 000216, Process = 000000, Comm = put
(PID.TID 0000.0001) //                bi = 000006, bj = 000015
(PID.TID 0000.0001) //       SOUTH: Tile = 000200, Process = 000000, Comm = put
(PID.TID 0000.0001) //                bi = 000005, bj = 000014
(PID.TID 0000.0001) //       NORTH: Tile = 000005, Process = 000000, Comm = put
(PID.TID 0000.0001) //                bi = 000005, bj = 000001
(PID.TID 0000.0001) // Tile number: 000216 (process no. = 000000)
(PID.TID 0000.0001) //        WEST: Tile = 000215, Process = 000000, Comm = put
(PID.TID 0000.0001) //                bi = 000005, bj = 000015
(PID.TID 0000.0001) //        EAST: Tile = 000217, Process = 000000, Comm = put
(PID.TID 0000.0001) //                bi = 000007, bj = 000015
(PID.TID 0000.0001) //       SOUTH: Tile = 000201, Process = 000000, Comm = put
(PID.TID 0000.0001) //                bi = 000006, bj = 000014
(PID.TID 0000.0001) //       NORTH: Tile = 000006, Process = 000000, Comm = put
(PID.TID 0000.0001) //                bi = 000006, bj = 000001
(PID.TID 0000.0001) // Tile number: 000217 (process no. = 000000)
(PID.TID 0000.0001) //        WEST: Tile = 000216, Process = 000000, Comm = put
(PID.TID 0000.0001) //                bi = 000006, bj = 000015
(PID.TID 0000.0001) //        EAST: Tile = 000218, Process = 000000, Comm = put
(PID.TID 0000.0001) //                bi = 000008, bj = 000015
(PID.TID 0000.0001) //       SOUTH: Tile = 000202, Process = 000000, Comm = put
(PID.TID 0000.0001) //                bi = 000007, bj = 000014
(PID.TID 0000.0001) //       NORTH: Tile = 000007, Process = 000000, Comm = put
(PID.TID 0000.0001) //                bi = 000007, bj = 000001
(PID.TID 0000.0001) // Tile number: 000218 (process no. = 000000)
(PID.TID 0000.0001) //        WEST: Tile = 000217, Process = 000000, Comm = put
(PID.TID 0000.0001) //                bi = 000007, bj = 000015
(PID.TID 0000.0001) //        EAST: Tile = 000219, Process = 000000, Comm = put
(PID.TID 0000.0001) //                bi = 000009, bj = 000015
(PID.TID 0000.0001) //       SOUTH: Tile = 000203, Process = 000000, Comm = put
(PID.TID 0000.0001) //                bi = 000008, bj = 000014
(PID.TID 0000.0001) //       NORTH: Tile = 000008, Process = 000000, Comm = put
(PID.TID 0000.0001) //                bi = 000008, bj = 000001
(PID.TID 0000.0001) // Tile number: 000219 (process no. = 000000)
(PID.TID 0000.0001) //        WEST: Tile = 000218, Process = 000000, Comm = put
(PID.TID 0000.0001) //                bi = 000008, bj = 000015
(PID.TID 0000.0001) //        EAST: Tile = 000220, Process = 000000, Comm = put
(PID.TID 0000.0001) //                bi = 000010, bj = 000015
(PID.TID 0000.0001) //       SOUTH: Tile = 000204, Process = 000000, Comm = put
(PID.TID 0000.0001) //                bi = 000009, bj = 000014
(PID.TID 0000.0001) //       NORTH: Tile = 000009, Process = 000000, Comm = put
(PID.TID 0000.0001) //                bi = 000009, bj = 000001
(PID.TID 0000.0001) // Tile number: 000220 (process no. = 000000)
(PID.TID 0000.0001) //        WEST: Tile = 000219, Process = 000000, Comm = put
(PID.TID 0000.0001) //                bi = 000009, bj = 000015
(PID.TID 0000.0001) //        EAST: Tile = 000221, Process = 000000, Comm = put
(PID.TID 0000.0001) //                bi = 000011, bj = 000015
(PID.TID 0000.0001) //       SOUTH: Tile = 000205, Process = 000000, Comm = put
(PID.TID 0000.0001) //                bi = 000010, bj = 000014
(PID.TID 0000.0001) //       NORTH: Tile = 000010, Process = 000000, Comm = put
(PID.TID 0000.0001) //                bi = 000010, bj = 000001
(PID.TID 0000.0001) // Tile number: 000221 (process no. = 000000)
(PID.TID 0000.0001) //        WEST: Tile = 000220, Process = 000000, Comm = put
(PID.TID 0000.0001) //                bi = 000010, bj = 000015
(PID.TID 0000.0001) //        EAST: Tile = 000222, Process = 000000, Comm = put
(PID.TID 0000.0001) //                bi = 000012, bj = 000015
(PID.TID 0000.0001) //       SOUTH: Tile = 000206, Process = 000000, Comm = put
(PID.TID 0000.0001) //                bi = 000011, bj = 000014
(PID.TID 0000.0001) //       NORTH: Tile = 000011, Process = 000000, Comm = put
(PID.TID 0000.0001) //                bi = 000011, bj = 000001
(PID.TID 0000.0001) // Tile number: 000222 (process no. = 000000)
(PID.TID 0000.0001) //        WEST: Tile = 000221, Process = 000000, Comm = put
(PID.TID 0000.0001) //                bi = 000011, bj = 000015
(PID.TID 0000.0001) //        EAST: Tile = 000223, Process = 000000, Comm = put
(PID.TID 0000.0001) //                bi = 000013, bj = 000015
(PID.TID 0000.0001) //       SOUTH: Tile = 000207, Process = 000000, Comm = put
(PID.TID 0000.0001) //                bi = 000012, bj = 000014
(PID.TID 0000.0001) //       NORTH: Tile = 000012, Process = 000000, Comm = put
(PID.TID 0000.0001) //                bi = 000012, bj = 000001
(PID.TID 0000.0001) // Tile number: 000223 (process no. = 000000)
(PID.TID 0000.0001) //        WEST: Tile = 000222, Process = 000000, Comm = put
(PID.TID 0000.0001) //                bi = 000012, bj = 000015
(PID.TID 0000.0001) //        EAST: Tile = 000224, Process = 000000, Comm = put
(PID.TID 0000.0001) //                bi = 000014, bj = 000015
(PID.TID 0000.0001) //       SOUTH: Tile = 000208, Process = 000000, Comm = put
(PID.TID 0000.0001) //                bi = 000013, bj = 000014
(PID.TID 0000.0001) //       NORTH: Tile = 000013, Process = 000000, Comm = put
(PID.TID 0000.0001) //                bi = 000013, bj = 000001
(PID.TID 0000.0001) // Tile number: 000224 (process no. = 000000)
(PID.TID 0000.0001) //        WEST: Tile = 000223, Process = 000000, Comm = put
(PID.TID 0000.0001) //                bi = 000013, bj = 000015
(PID.TID 0000.0001) //        EAST: Tile = 000225, Process = 000000, Comm = put
(PID.TID 0000.0001) //                bi = 000015, bj = 000015
(PID.TID 0000.0001) //       SOUTH: Tile = 000209, Process = 000000, Comm = put
(PID.TID 0000.0001) //                bi = 000014, bj = 000014
(PID.TID 0000.0001) //       NORTH: Tile = 000014, Process = 000000, Comm = put
(PID.TID 0000.0001) //                bi = 000014, bj = 000001
(PID.TID 0000.0001) // Tile number: 000225 (process no. = 000000)
(PID.TID 0000.0001) //        WEST: Tile = 000224, Process = 000000, Comm = put
(PID.TID 0000.0001) //                bi = 000014, bj = 000015
(PID.TID 0000.0001) //        EAST: Tile = 000211, Process = 000000, Comm = put
(PID.TID 0000.0001) //                bi = 000001, bj = 000015
(PID.TID 0000.0001) //       SOUTH: Tile = 000210, Process = 000000, Comm = put
(PID.TID 0000.0001) //                bi = 000015, bj = 000014
(PID.TID 0000.0001) //       NORTH: Tile = 000015, Process = 000000, Comm = put
(PID.TID 0000.0001) //                bi = 000015, bj = 000001
(PID.TID 0000.0001) 
(PID.TID 0000.0001)  INI_PARMS: opening model parameter file "data"
(PID.TID 0000.0001)  OPEN_COPY_DATA_FILE: opening file data
(PID.TID 0000.0001) // =======================================================
(PID.TID 0000.0001) // Parameter file "data"
(PID.TID 0000.0001) // =======================================================
(PID.TID 0000.0001) ># Model parameters
(PID.TID 0000.0001) ># Continuous equation parameters
(PID.TID 0000.0001) > &PARM01
(PID.TID 0000.0001) > viscAh=100.,
(PID.TID 0000.0001) > viscAr=1.E-5,
(PID.TID 0000.0001) > no_slip_sides=.FALSE.,
(PID.TID 0000.0001) > no_slip_bottom=.FALSE.,
(PID.TID 0000.0001) > diffKhT=100.,
(PID.TID 0000.0001) > diffKrT=1.E-5,
(PID.TID 0000.0001) > diffKhS=100.,
(PID.TID 0000.0001) > diffKrS=1.E-5,
(PID.TID 0000.0001) > ivdc_kappa=1.,
(PID.TID 0000.0001) > implicitDiffusion=.TRUE.,
(PID.TID 0000.0001) > eosType='LINEAR',
(PID.TID 0000.0001) > tAlpha=2.E-4,
(PID.TID 0000.0001) > sBeta=7.4E-4,
(PID.TID 0000.0001) > rhoNil=999.8,
(PID.TID 0000.0001) > gravity=9.81,
(PID.TID 0000.0001) > rigidLid=.FALSE.,
(PID.TID 0000.0001) > implicitFreeSurface=.TRUE.,
(PID.TID 0000.0001) > exactConserv=.TRUE.,
(PID.TID 0000.0001) > saltStepping=.TRUE.,
(PID.TID 0000.0001) > readBinaryPrec = 64,
(PID.TID 0000.0001) > writeBinaryPrec = 64,
(PID.TID 0000.0001) > tRef=16.6, 16.6, 16.6, 16.5, 16.5, 16.5, 16.5, 16.5, 16.5,
(PID.TID 0000.0001) >      16.5, 16.4, 16.4, 16.3, 16.1, 15.9, 15.7, 15.3,
(PID.TID 0000.0001) >      14.8, 14.2, 13.5, 12.6, 11.7, 11.0, 10.4, 9.7,
(PID.TID 0000.0001) >      9.2, 8.8, 8.4, 8.0, 7.5, 7.1, 6.7, 6.4,
(PID.TID 0000.0001) >      6.1, 5.8, 5.5, 5.2, 4.8, 4.5, 4.2,
(PID.TID 0000.0001) > sRef=33.6, 33.6, 33.6, 33.6, 33.6, 33.6, 33.6, 33.6, 33.6,
(PID.TID 0000.0001) >      33.6, 33.6, 33.6, 33.6, 33.6, 33.6, 33.6, 33.6,
(PID.TID 0000.0001) >      33.7, 33.7, 33.7, 33.8, 33.8, 33.8, 33.9, 33.9,
(PID.TID 0000.0001) >      34.0, 34.0, 34.1, 34.2, 34.2, 34.2, 34.2, 34.3,
(PID.TID 0000.0001) >      34.3, 34.3, 34.4, 34.4, 34.4, 34.4, 34.5,
(PID.TID 0000.0001) > f0=6.94E-4,
(PID.TID 0000.0001) ># globalFiles=.TRUE.,
(PID.TID 0000.0001) > useSingleCpuIO=.TRUE.,
(PID.TID 0000.0001) > /
(PID.TID 0000.0001) >
(PID.TID 0000.0001) ># Elliptic solver parameters
(PID.TID 0000.0001) > &PARM02
(PID.TID 0000.0001) > cg2dTargetResidual=1.E-7,
(PID.TID 0000.0001) > cg2dMaxIters=1000,
(PID.TID 0000.0001) > /
(PID.TID 0000.0001) >
(PID.TID 0000.0001) ># Time stepping parameters
(PID.TID 0000.0001) > &PARM03
(PID.TID 0000.0001) > startTime=0.,
(PID.TID 0000.0001) > endTime=36000.,,
(PID.TID 0000.0001) ># pickupSuff='ckptA',
(PID.TID 0000.0001) > nIter0=0,
(PID.TID 0000.0001) > deltaT=60.,
(PID.TID 0000.0001) > chkptFreq=43200.,
(PID.TID 0000.0001) > dumpFreq=1200.,
(PID.TID 0000.0001) > monitorFreq=1200.,
(PID.TID 0000.0001) > monitorSelect=2,
(PID.TID 0000.0001) > periodicExternalForcing=.TRUE.,
(PID.TID 0000.0001) > externForcingPeriod=600.,
(PID.TID 0000.0001) > externForcingCycle=36000,
(PID.TID 0000.0001) > /
(PID.TID 0000.0001) >
(PID.TID 0000.0001) ># Gridding parameters
(PID.TID 0000.0001) > &PARM04
(PID.TID 0000.0001) ># usingSphericalPolarGrid=.TRUE.,
(PID.TID 0000.0001) > usingCartesianGrid=.TRUE.,
(PID.TID 0000.0001) > xgOrigin=-238E3,
(PID.TID 0000.0001) > ygOrigin=-62E3,
(PID.TID 0000.0001) > delR=2.0, 2.2, 2.4, 2.7, 3.0, 3.3, 3.6, 4.0, 4.4,
(PID.TID 0000.0001) >      4.9, 5.4, 6.0, 6.6, 7.3, 8.0, 8.9, 9.8,
(PID.TID 0000.0001) >      10.8, 12.0, 13.2, 14.6, 16.1, 17.8, 19.7, 21.7,
(PID.TID 0000.0001) >      24.0, 26.5, 29.3, 32.3, 35.7, 39.4, 43.6, 48.1,
(PID.TID 0000.0001) >      53.1, 58.7, 64.8, 71.6, 79.1, 87.1, 96.3,
(PID.TID 0000.0001) > delYFile = '../input/bahia_01_smooth_dy.bin',
(PID.TID 0000.0001) > delXFile = '../input/bahia_01_smooth_dx.bin',
(PID.TID 0000.0001) > /
(PID.TID 0000.0001) >
(PID.TID 0000.0001) > &PARM05
(PID.TID 0000.0001) > bathyFile='../input/bahia_01_noShelf_bat.bin',
(PID.TID 0000.0001) > meridWindFile='../input/merid_halfgauss2p5hr_240x180.bin',
(PID.TID 0000.0001) > hydrogThetaFile='../input/feb_temp_40zlev_240x180.bin',
(PID.TID 0000.0001) > hydrogSaltFile='../input/feb_salt_40zlev_240x180.bin',
(PID.TID 0000.0001) > /
(PID.TID 0000.0001) >
(PID.TID 0000.0001) 
(PID.TID 0000.0001)  INI_PARMS ; starts to read PARM01
(PID.TID 0000.0001)  INI_PARMS ; read PARM01 : OK
(PID.TID 0000.0001)  INI_PARMS ; starts to read PARM02
(PID.TID 0000.0001)  INI_PARMS ; read PARM02 : OK
(PID.TID 0000.0001)  INI_PARMS ; starts to read PARM03
(PID.TID 0000.0001)  INI_PARMS ; read PARM03 : OK
(PID.TID 0000.0001)  INI_PARMS ; starts to read PARM04
(PID.TID 0000.0001)  INI_PARMS ; read PARM04 : OK
(PID.TID 0000.0001)  INI_PARMS ; starts to read PARM05
(PID.TID 0000.0001)  INI_PARMS ; read PARM05 : OK
(PID.TID 0000.0001)  INI_PARMS: finished reading file "data"
(PID.TID 0000.0001)  PACKAGES_BOOT: opening data.pkg
(PID.TID 0000.0001)  OPEN_COPY_DATA_FILE: opening file data.pkg
(PID.TID 0000.0001) // =======================================================
(PID.TID 0000.0001) // Parameter file "data.pkg"
(PID.TID 0000.0001) // =======================================================
(PID.TID 0000.0001) ># Packages (lines beginning "#" are comments)
(PID.TID 0000.0001) > &PACKAGES
(PID.TID 0000.0001) > useMNC=.TRUE.,
(PID.TID 0000.0001) > useDiagnostics=.FALSE.,
(PID.TID 0000.0001) > useOBCS=.TRUE.,
(PID.TID 0000.0001) > /
(PID.TID 0000.0001) 
(PID.TID 0000.0001)  PACKAGES_BOOT: finished reading data.pkg
(PID.TID 0000.0001)  PACKAGES_BOOT: On/Off package Summary
 --------  pkgs with a standard "usePKG" On/Off switch in "data.pkg":  --------
 pkg/obcs                 compiled   and   used ( useOBCS                  = T )
 pkg/mnc                  compiled   and   used ( useMNC                   = T )
 -------- pkgs without standard "usePKG" On/Off switch in "data.pkg":  --------
 pkg/generic_advdiff      compiled   and   used ( useGAD                   = T )
 pkg/mom_common           compiled   and   used ( momStepping              = T )
 pkg/mom_vecinv           compiled but not used ( +vectorInvariantMomentum = F )
 pkg/mom_fluxform         compiled   and   used ( & not vectorInvariantMom = T )
 pkg/monitor              compiled   and   used ( monitorFreq > 0.         = T )
 pkg/debug                compiled but not used ( debugMode                = F )
 pkg/rw                   compiled   and   used
 pkg/mdsio                compiled   and   used
(PID.TID 0000.0001)  PACKAGES_BOOT: End of package Summary
(PID.TID 0000.0001) 
(PID.TID 0000.0001)  MNC_READPARMS: opening file 'data.mnc'
(PID.TID 0000.0001)  OPEN_COPY_DATA_FILE: opening file data.mnc
(PID.TID 0000.0001) // =======================================================
(PID.TID 0000.0001) // Parameter file "data.mnc"
(PID.TID 0000.0001) // =======================================================
(PID.TID 0000.0001) ># Example "data.mnc" file
(PID.TID 0000.0001) ># Lines beginning "#" are comments
(PID.TID 0000.0001) > &MNC_01
(PID.TID 0000.0001) ># mnc_echo_gvtypes=.FALSE.,
(PID.TID 0000.0001) ># mnc_use_indir=.FALSE.,
(PID.TID 0000.0001) > mnc_use_outdir=.TRUE.,
(PID.TID 0000.0001) >
(PID.TID 0000.0001) >mnc_outdir_str='mnc_',
(PID.TID 0000.0001) >#mnc_outdir_date=.TRUE.,
(PID.TID 0000.0001) > monitor_mnc=.FALSE.,
(PID.TID 0000.0001) >#snapshot_mnc=.FALSE.,
(PID.TID 0000.0001) >#timeave_mnc=.FALSE.,
(PID.TID 0000.0001) > pickup_read_mnc=.FALSE.,
(PID.TID 0000.0001) > pickup_write_mnc=.FALSE.,
(PID.TID 0000.0001) > /
(PID.TID 0000.0001) ># Note: Some systems use / as the
(PID.TID 0000.0001) ># namelist terminator. Other systems
(PID.TID 0000.0001) ># use a & character (as shown here).
(PID.TID 0000.0001) 
(PID.TID 0000.0001)  MNC_READPARMS: finished reading data.mnc
(PID.TID 0000.0001)  OBCS_READPARMS: opening data.obcs
(PID.TID 0000.0001)  OPEN_COPY_DATA_FILE: opening file data.obcs
(PID.TID 0000.0001) // =======================================================
(PID.TID 0000.0001) // Parameter file "data.obcs"
(PID.TID 0000.0001) // =======================================================
(PID.TID 0000.0001) ># Open-boundaries
(PID.TID 0000.0001) > &OBCS_PARM01
(PID.TID 0000.0001) >
(PID.TID 0000.0001) > OB_Jsouth = 240*1,
(PID.TID 0000.0001) > OB_Jnorth = 180*0,
(PID.TID 0000.0001) > useOrlanskiSouth=.TRUE.,
(PID.TID 0000.0001) > useOBCSsponge=.FALSE.,
(PID.TID 0000.0001) > useLinearSponge=.FALSE.,
(PID.TID 0000.0001) > OBCSsponge_Salt=.FALSE.,
(PID.TID 0000.0001) > OBCSsponge_Theta=.FALSE.,
(PID.TID 0000.0001) > useOBCSbalance=.TRUE.,
(PID.TID 0000.0001) > useOBCSprescribe=.FALSE.,
(PID.TID 0000.0001) > OBCS_balanceFacS=1.,
(PID.TID 0000.0001) > OBCS_monitorFreq=1200.,
(PID.TID 0000.0001) > /
(PID.TID 0000.0001) >
(PID.TID 0000.0001) > &OBCS_PARM02
(PID.TID 0000.0001) > cvelTimeScale=2000.0,
(PID.TID 0000.0001) > CMAX=1.0,
(PID.TID 0000.0001) > /
(PID.TID 0000.0001) >
(PID.TID 0000.0001) > &OBCS_PARM03
(PID.TID 0000.0001) > spongeThickness=12,
(PID.TID 0000.0001) > Urelaxobcsinner=600.E0,
(PID.TID 0000.0001) > Vrelaxobcsinner=600.E0,
(PID.TID 0000.0001) > Urelaxobcsbound=90.E0,
(PID.TID 0000.0001) > Vrelaxobcsbound=90.E0,
(PID.TID 0000.0001) > /
(PID.TID 0000.0001) 
(PID.TID 0000.0001)  OBCS_READPARMS: finished reading data.obcs
(PID.TID 0000.0001)  OB_indexUnset = /* unset OB index value (i.e. no OB) */
(PID.TID 0000.0001)                       0
(PID.TID 0000.0001)     ;
(PID.TID 0000.0001)  Northern OB global indices : OB_Jnorth =
(PID.TID 0000.0001)   240 @        0                            /* I =  1:240 */
(PID.TID 0000.0001)  Southern OB global indices : OB_Jsouth =
(PID.TID 0000.0001)   240 @        1                            /* I =  1:240 */
(PID.TID 0000.0001)  Eastern  OB global indices : OB_Ieast =
(PID.TID 0000.0001)   180 @        0                            /* J =  1:180 */
(PID.TID 0000.0001)  Western  OB global indices : OB_Iwest =
(PID.TID 0000.0001)   180 @        0                            /* J =  1:180 */
(PID.TID 0000.0001) 
(PID.TID 0000.0001) SET_PARMS: done
(PID.TID 0000.0001)  MDS_READVEC_LOC: open file: ../input/bahia_01_smooth_dx.bin
(PID.TID 0000.0001) S/R LOAD_GRID_SPACING: delX loaded from file: ../input/bahia_01_smooth_dx.bin
(PID.TID 0000.0001)  MDS_READVEC_LOC: open file: ../input/bahia_01_smooth_dy.bin
(PID.TID 0000.0001) S/R LOAD_GRID_SPACING: delY loaded from file: ../input/bahia_01_smooth_dy.bin
(PID.TID 0000.0001) Enter INI_VERTICAL_GRID: setInterFDr=    T ; setCenterDr=    F
(PID.TID 0000.0001) %MON XC_max                       =   2.3899580000000E+05
(PID.TID 0000.0001) %MON XC_min                       =  -2.3700420000000E+05
(PID.TID 0000.0001) %MON XC_mean                      =   9.9581583333332E+02
(PID.TID 0000.0001) %MON XC_sd                        =   1.3798310177941E+05
(PID.TID 0000.0001) %MON XG_max                       =   2.3800000000000E+05
(PID.TID 0000.0001) %MON XG_min                       =  -2.3800000000000E+05
(PID.TID 0000.0001) %MON XG_mean                      =  -1.7246714344731E-13
(PID.TID 0000.0001) %MON XG_sd                        =   1.3798310189368E+05
(PID.TID 0000.0001) %MON DXC_max                      =   1.9916500000000E+03
(PID.TID 0000.0001) %MON DXC_min                      =   1.9916000000000E+03
(PID.TID 0000.0001) %MON DXC_mean                     =   1.9916316666667E+03
(PID.TID 0000.0001) %MON DXC_sd                       =   2.4094720491571E-02
(PID.TID 0000.0001) %MON DXF_max                      =   1.9917000000000E+03
(PID.TID 0000.0001) %MON DXF_min                      =   1.9916000000000E+03
(PID.TID 0000.0001) %MON DXF_mean                     =   1.9916316666667E+03
(PID.TID 0000.0001) %MON DXF_sd                       =   4.6517619123582E-02
(PID.TID 0000.0001) %MON DXG_max                      =   1.9917000000000E+03
(PID.TID 0000.0001) %MON DXG_min                      =   1.9916000000000E+03
(PID.TID 0000.0001) %MON DXG_mean                     =   1.9916316666667E+03
(PID.TID 0000.0001) %MON DXG_sd                       =   4.6517619123582E-02
(PID.TID 0000.0001) %MON DXV_max                      =   1.9916500000000E+03
(PID.TID 0000.0001) %MON DXV_min                      =   1.9916000000000E+03
(PID.TID 0000.0001) %MON DXV_mean                     =   1.9916316666667E+03
(PID.TID 0000.0001) %MON DXV_sd                       =   2.4094720491571E-02
(PID.TID 0000.0001) %MON YC_max                       =   3.5817040000000E+05
(PID.TID 0000.0001) %MON YC_min                       =  -6.0829600000000E+04
(PID.TID 0000.0001) %MON YC_mean                      =   1.4867039111111E+05
(PID.TID 0000.0001) %MON YC_sd                        =   1.2162873101808E+05
(PID.TID 0000.0001) %MON YG_max                       =   3.5700000000000E+05
(PID.TID 0000.0001) %MON YG_min                       =  -6.2000000000000E+04
(PID.TID 0000.0001) %MON YG_mean                      =   1.4750000000000E+05
(PID.TID 0000.0001) %MON YG_sd                        =   1.2162873093255E+05
(PID.TID 0000.0001) %MON DYC_max                      =   2.3408000000000E+03
(PID.TID 0000.0001) %MON DYC_min                      =   2.3407500000000E+03
(PID.TID 0000.0001) %MON DYC_mean                     =   2.3407822222222E+03
(PID.TID 0000.0001) %MON DYC_sd                       =   2.3934065809416E-02
(PID.TID 0000.0001) %MON DYF_max                      =   2.3408000000000E+03
(PID.TID 0000.0001) %MON DYF_min                      =   2.3407000000000E+03
(PID.TID 0000.0001) %MON DYF_mean                     =   2.3407822222222E+03
(PID.TID 0000.0001) %MON DYF_sd                       =   3.8232556741396E-02
(PID.TID 0000.0001) %MON DYG_max                      =   2.3408000000000E+03
(PID.TID 0000.0001) %MON DYG_min                      =   2.3407000000000E+03
(PID.TID 0000.0001) %MON DYG_mean                     =   2.3407822222222E+03
(PID.TID 0000.0001) %MON DYG_sd                       =   3.8232556741396E-02
(PID.TID 0000.0001) %MON DYU_max                      =   2.3408000000000E+03
(PID.TID 0000.0001) %MON DYU_min                      =   2.3407500000000E+03
(PID.TID 0000.0001) %MON DYU_mean                     =   2.3407822222222E+03
(PID.TID 0000.0001) %MON DYU_sd                       =   2.3934065809416E-02
(PID.TID 0000.0001) %MON RA_max                       =   4.6621713600001E+06
(PID.TID 0000.0001) %MON RA_min                       =   4.6617381199999E+06
(PID.TID 0000.0001) %MON RA_mean                      =   4.6619759985481E+06
(PID.TID 0000.0001) %MON RA_sd                        =   1.3287061343034E+02
(PID.TID 0000.0001) %MON RAW_max                      =   4.6620543200001E+06
(PID.TID 0000.0001) %MON RAW_min                      =   4.6617381199999E+06
(PID.TID 0000.0001) %MON RAW_mean                     =   4.6619759985481E+06
(PID.TID 0000.0001) %MON RAW_sd                       =   9.4758127226225E+01
(PID.TID 0000.0001) %MON RAS_max                      =   4.6621713600001E+06
(PID.TID 0000.0001) %MON RAS_min                      =   4.6618376999999E+06
(PID.TID 0000.0001) %MON RAS_mean                     =   4.6619759985481E+06
(PID.TID 0000.0001) %MON RAS_sd                       =   1.1886436043765E+02
(PID.TID 0000.0001) %MON RAZ_max                      =   4.6620543200001E+06
(PID.TID 0000.0001) %MON RAZ_min                      =   4.6618377000000E+06
(PID.TID 0000.0001) %MON RAZ_mean                     =   4.6619759985481E+06
(PID.TID 0000.0001) %MON RAZ_sd                       =   7.3846048951314E+01
(PID.TID 0000.0001) %MON AngleCS_max                  =   1.0000000000000E+00
(PID.TID 0000.0001) %MON AngleCS_min                  =   1.0000000000000E+00
(PID.TID 0000.0001) %MON AngleCS_mean                 =   1.0000000000000E+00
(PID.TID 0000.0001) %MON AngleCS_sd                   =   0.0000000000000E+00
(PID.TID 0000.0001) %MON AngleSN_max                  =   0.0000000000000E+00
(PID.TID 0000.0001) %MON AngleSN_min                  =   0.0000000000000E+00
(PID.TID 0000.0001) %MON AngleSN_mean                 =   0.0000000000000E+00
(PID.TID 0000.0001) %MON AngleSN_sd                   =   0.0000000000000E+00
(PID.TID 0000.0001)  MDS_READ_FIELD: opening global file: ../input/bahia_01_noShelf_bat.bin
(PID.TID 0000.0001) // =======================================================
(PID.TID 0000.0001) // Field Model R_low (ini_masks_etc)
(PID.TID 0000.0001) // CMIN =         -1.000000000000000E+03
(PID.TID 0000.0001) // CMAX =         -2.000000000000000E+00
(PID.TID 0000.0001) // CINT =          3.696296296296296E+01
(PID.TID 0000.0001) // SYMBOLS (CMIN->CMAX): -abcdefghijklmnopqrstuvwxyz+
(PID.TID 0000.0001) //                  0.0: .
(PID.TID 0000.0001) // RANGE I (Lo:Hi:Step):(    -2:   243:     1)
(PID.TID 0000.0001) // RANGE J (Lo:Hi:Step):(   183:    -2:    -1)
(PID.TID 0000.0001) // RANGE K (Lo:Hi:Step):(   1:   1:   1)
(PID.TID 0000.0001) // =======================================================
(PID.TID 0000.0001) K =   1
(PID.TID 0000.0001) //                I=7       I=17      I=21      I=31      I=35      I=45      I=49      I=59      I=63      I=73      I=83      I=87      I=97      I=101     I=111     I=115     I=125     I=129     I=139     I=143     I=153     I=163     I=167     I=177     I=181     I=191     I=195     I=205     I=209     I=219     I=223     I=233     I=243
(PID.TID 0000.0001) // |--J--|210123456|890123456|894567890|234567890|234501234|678901234|678901678|012345678|012345672|456789012|456789012|890123456|890123456|894567890|234567890|234501234|678901234|678901678|012345678|012345672|456789012|456789012|890123456|890123456|894567890|234567890|234501234|678901234|678901678|012345678|012345672|456789012|456789012|
(PID.TID 0000.0001) //    183 ------------------------------------------------------------------------------------------------------------------------------------------------------------------------------------------------------------------------------------------------------------------------------------------------------------------------------------------
(PID.TID 0000.0001) //    182 ------------------------------------------------------------------------------------------------------------------------------------------------------------------------------------------------------------------------------------------------------------------------------------------------------------------------------------------
(PID.TID 0000.0001) //    181 ------------------------------------------------------------------------------------------------------------------------------------------------------------------------------------------------------------------------------------------------------------------------------------------------------------------------------------------
(PID.TID 0000.0001) //    180 ..........................................................................................................................................................................................................................................................................................................................................
(PID.TID 0000.0001) //    179 .....................................................................................................................................................+++++.++++++++++++++++++++.+++++.....................................................................................................................................................
(PID.TID 0000.0001) //    178 ................................................................................................................................................++++++++++++++++++++++++++++++++++++++++++................................................................................................................................................
(PID.TID 0000.0001) //    177 .............................................................................................................................................++++++++++++++++++++++++++++++++++++++++++++++++.............................................................................................................................................
(PID.TID 0000.0001) //    176 ..........................................................................................................................................+++++++++++++++++++++++++zzzz+++++++++++++++++++++++++..........................................................................................................................................
(PID.TID 0000.0001) //    175 .................................................................................................................................+++...+++++++++++++zzzzzzzzzzzzzzzzzzzzzzzzzzzzzzzzzz+++++++++++++...+++.................................................................................................................................
(PID.TID 0000.0001) //    174 ...............................................................................................................................+++++.+++++++++++zzzzzzzzzzzzzzzzzzzzzzzzzzzzzzzzzzzzzzzzzz+++++++++++.+++++...............................................................................................................................
(PID.TID 0000.0001) //    173 .............................................................................................................................++++++++++++++++zzzzzzzzzzzzzzzzzzzzzzzzzzzzzzzzzzzzzzzzzzzzzzzz++++++++++++++++.............................................................................................................................
(PID.TID 0000.0001) //    172 ...........................................................................................................................+++++++++++++++zzzzzzzzzzzzzzzzzzzzzzzzzzzzzzzzzzzzzzzzzzzzzzzzzzzzzz+++++++++++++++...........................................................................................................................
(PID.TID 0000.0001) //    171 ..........................................................................................................................++++++++zz++++zzzzzzzzzzzzzzzzzzzzzzzzzzzzzzzzzzzzzzzzzzzzzzzzzzzzzzzzzz++++zz++++++++..........................................................................................................................
(PID.TID 0000.0001) //    170 ........................................................................................................................++++++++zzzz++zzzzzzzzzzzzzzzzzzzzzzzzzzzzzzzzzzzzzzzzzzzzzzzzzzzzzzzzzzzzzz++zzzz++++++++........................................................................................................................
(PID.TID 0000.0001) //    169 .......................................................................................................................+++++++zzzzzzzzzzzzzzzzzzzzzzzzzzzzzzzzzzyyyyyyyyyyzzzzzzzzzzzzzzzzzzzzzzzzzzzzzzzzzz+++++++.......................................................................................................................
(PID.TID 0000.0001) //    168 .....................................................................................................................+++++++zzzzzzzzzzzzzzzzzzzzzzzzyyyyyyyyyyyyyyyyyyyyyyyyyyyyyyyyyyzzzzzzzzzzzzzzzzzzzzzzzz+++++++.....................................................................................................................
(PID.TID 0000.0001) //    167 ....................................................................................................................++++++zzzzzzzzzzzzzzzzzzzzzzyyyyyyyyyyyyyyyyyyyyyyyyyyyyyyyyyyyyyyyyyyzzzzzzzzzzzzzzzzzzzzzz++++++....................................................................................................................
(PID.TID 0000.0001) //    166 .............................................................................................................+.....++++++zzzzzzzzzzzzzzzzzzzzyyyyyyyyyyyyyyyyyyyyyyyyyyyyyyyyyyyyyyyyyyyyyyyyzzzzzzzzzzzzzzzzzzzz++++++.....+.............................................................................................................
(PID.TID 0000.0001) //    171 ..........................................................................................................................++++++++zz++++zzzzzzzzzzzzzzzzzzzzzzzzzzzzzzzzzzzzzzzzzzzzzzzzzzzzzzzzzz++++zz++++++++..........................................................................................................................
(PID.TID 0000.0001) //    170 ........................................................................................................................++++++++zzzz++zzzzzzzzzzzzzzzzzzzzzzzzzzzzzzzzzzzzzzzzzzzzzzzzzzzzzzzzzzzzzz++zzzz++++++++........................................................................................................................
(PID.TID 0000.0001) //    169 .......................................................................................................................+++++++zzzzzzzzzzzzzzzzzzzzzzzzzzzzzzzzzzyyyyyyyyyyzzzzzzzzzzzzzzzzzzzzzzzzzzzzzzzzzz+++++++.......................................................................................................................
(PID.TID 0000.0001) //    168 .....................................................................................................................+++++++zzzzzzzzzzzzzzzzzzzzzzzzyyyyyyyyyyyyyyyyyyyyyyyyyyyyyyyyyyzzzzzzzzzzzzzzzzzzzzzzzz+++++++.....................................................................................................................
(PID.TID 0000.0001) //    167 ....................................................................................................................++++++zzzzzzzzzzzzzzzzzzzzzzyyyyyyyyyyyyyyyyyyyyyyyyyyyyyyyyyyyyyyyyyyzzzzzzzzzzzzzzzzzzzzzz++++++....................................................................................................................
(PID.TID 0000.0001) //    166 .............................................................................................................+.....++++++zzzzzzzzzzzzzzzzzzzzyyyyyyyyyyyyyyyyyyyyyyyyyyyyyyyyyyyyyyyyyyyyyyyyzzzzzzzzzzzzzzzzzzzz++++++.....+.............................................................................................................
(PID.TID 0000.0001) //    165 ............................................................................................................++....++++++zzzzzzzzzzzzzzzzzzzyyyyyyyyyyyyyyyyyyyyyyyyyyyyyyyyyyyyyyyyyyyyyyyyyyyyzzzzzzzzzzzzzzzzzzz++++++....++............................................................................................................
(PID.TID 0000.0001) //    164 ..........................................................................................................++++..++++++zzzzzzzzzzzzzyzzzzzyyyyyyyyyyyyyyyyyyyyyyyyyyyyyyyyyyyyyyyyyyyyyyyyyyyyyyyyzzzzzyzzzzzzzzzzzzz++++++..++++..........................................................................................................
(PID.TID 0000.0001) //    163 .........................................................................................................+++++.++++++zzzzzzzzzzzzyyyzzzyyyyyyyyyyyyyyyyyyyyyyyyyyyyyyyyyyyyyyyyyyyyyyyyyyyyyyyyyyyyzzzyyyzzzzzzzzzzzz++++++.+++++.........................................................................................................
(PID.TID 0000.0001) //    162 ........................................................................................................++++++++++++zzzzzzzzzzzyyyyyzyyyyyyyyyyyyyyyyyyyyyyyyyyyyyyyyyyyyyyyyyyyyyyyyyyyyyyyyyyyyyyyyzyyyyyzzzzzzzzzzz++++++++++++........................................................................................................
(PID.TID 0000.0001) //    161 .......................................................................................................++++++z+++++zzzzzzzzzzzyyyyyyyyyyyyyyyyyyyyyyyyyyyyyyyyyyyyyyyyyyyyyyyyyyyyyyyyyyyyyyyyyyyyyyyyyyyyyyzzzzzzzzzzz+++++z++++++.......................................................................................................
(PID.TID 0000.0001) //    160 .......................................................................................................+++++zz++++zzzzzzzzzzyyyyyyyyyyyyyyyyyyyyyyyyyyyyxxyyyyxxxxxxxxxxxxxxyyyyxxyyyyyyyyyyyyyyyyyyyyyyyyyyyyzzzzzzzzzz++++zz+++++.......................................................................................................
(PID.TID 0000.0001) //    159 ......................................................................................................+++++zzz+++zzzzzzzzzzyyyyyyyyyyyyyyyyyyyyyyyyyxxxxxxxxxxxxxxxxxxxxxxxxxxxxxxxxxxyyyyyyyyyyyyyyyyyyyyyyyyyzzzzzzzzzz+++zzz+++++......................................................................................................
(PID.TID 0000.0001) //    158 .....................................................................................................+++++zzzz++zzzzzzzzzzyyyyyyyyyyyyyyyyyyyyyyyxxxxxxxxxxxxxxxxxxxxxxxxxxxxxxxxxxxxxxxxyyyyyyyyyyyyyyyyyyyyyyyzzzzzzzzzz++zzzz+++++.....................................................................................................
(PID.TID 0000.0001) //    157 ....................................................................................................+++++zzzzz+zzzzzzzzzzyyyyyyyyyyyyyyyyyyyyyxxxxxxxxxxxxxxxxxxxxxxxxxxxxxxxxxxxxxxxxxxxxxxyyyyyyyyyyyyyyyyyyyyyzzzzzzzzzz+zzzzz+++++....................................................................................................
(PID.TID 0000.0001) //    156 ...................................................................................................+++++zzzzzzzzzzzzzzzyyyyyyyyyyyyyyyyyyyyyxxxxxxxxxxxxxxxxxxxxxxxxxxxxxxxxxxxxxxxxxxxxxxxxxxyyyyyyyyyyyyyyyyyyyyyzzzzzzzzzzzzzzz+++++...................................................................................................
(PID.TID 0000.0001) //    155 ..................................................................................................+++++zzzzzzzzzzzzzzzyyyyyyyyyyyyyyyyyyyyyxxxxxxxxxxxxxxxxxxxxxxxxxxxxxxxxxxxxxxxxxxxxxxxxxxxxyyyyyyyyyyyyyyyyyyyyyzzzzzzzzzzzzzzz+++++..................................................................................................
(PID.TID 0000.0001) //    154 ..................................................................................................++++zzzzzzzzzzzzzzzyyyyyyyyyyyyyyxyyyyyxxxxxxxxxxxxxxxxxxxxxxxxxxxxxxxxxxxxxxxxxxxxxxxxxxxxxxxxyyyyyxyyyyyyyyyyyyyyzzzzzzzzzzzzzzz++++..................................................................................................
(PID.TID 0000.0001) //    159 ......................................................................................................+++++zzz+++zzzzzzzzzzyyyyyyyyyyyyyyyyyyyyyyyyyxxxxxxxxxxxxxxxxxxxxxxxxxxxxxxxxxxyyyyyyyyyyyyyyyyyyyyyyyyyzzzzzzzzzz+++zzz+++++......................................................................................................
(PID.TID 0000.0001) //    158 .....................................................................................................+++++zzzz++zzzzzzzzzzyyyyyyyyyyyyyyyyyyyyyyyxxxxxxxxxxxxxxxxxxxxxxxxxxxxxxxxxxxxxxxxyyyyyyyyyyyyyyyyyyyyyyyzzzzzzzzzz++zzzz+++++.....................................................................................................
(PID.TID 0000.0001) //    157 ....................................................................................................+++++zzzzz+zzzzzzzzzzyyyyyyyyyyyyyyyyyyyyyxxxxxxxxxxxxxxxxxxxxxxxxxxxxxxxxxxxxxxxxxxxxxxyyyyyyyyyyyyyyyyyyyyyzzzzzzzzzz+zzzzz+++++....................................................................................................
(PID.TID 0000.0001) //    156 ...................................................................................................+++++zzzzzzzzzzzzzzzyyyyyyyyyyyyyyyyyyyyyxxxxxxxxxxxxxxxxxxxxxxxxxxxxxxxxxxxxxxxxxxxxxxxxxxyyyyyyyyyyyyyyyyyyyyyzzzzzzzzzzzzzzz+++++...................................................................................................
(PID.TID 0000.0001) //    155 ..................................................................................................+++++zzzzzzzzzzzzzzzyyyyyyyyyyyyyyyyyyyyyxxxxxxxxxxxxxxxxxxxxxxxxxxxxxxxxxxxxxxxxxxxxxxxxxxxxyyyyyyyyyyyyyyyyyyyyyzzzzzzzzzzzzzzz+++++..................................................................................................
(PID.TID 0000.0001) //    154 ..................................................................................................++++zzzzzzzzzzzzzzzyyyyyyyyyyyyyyxyyyyyxxxxxxxxxxxxxxxxxxxxxxxxxxxxxxxxxxxxxxxxxxxxxxxxxxxxxxxxyyyyyxyyyyyyyyyyyyyyzzzzzzzzzzzzzzz++++..................................................................................................
(PID.TID 0000.0001) //    153 .................................................................................................+++++zzzzzzzzzzzzzzzyyyyyyyyyyyyxxxyyyxxxxxxxxxxxxxxxxxxxxxxxxxxxxxxxxxxxxxxxxxxxxxxxxxxxxxxxxxxxxyyyxxxyyyyyyyyyyyyzzzzzzzzzzzzzzz+++++.................................................................................................
(PID.TID 0000.0001) //    152 ................................................................................................+++++zzzzzzzzzzzzzzzyyyyyyyyyyyyxxxxyyxxxxxxxxxxxxxxxxxxxxxxxxxxxxxxxxxxxxxxxxxxxxxxxxxxxxxxxxxxxxxxyyxxxxyyyyyyyyyyyyzzzzzzzzzzzzzzz+++++................................................................................................
(PID.TID 0000.0001) //    151 ................................................................................................++++zzzzzzzzzyzzzzzyyyyyyyyyyyyxxxxxyxxxxxxxxxxxxxxxxxxxxxxxxxxxxxxxxxxxxxxxxxxxxxxxxxxxxxxxxxxxxxxxxyxxxxxyyyyyyyyyyyyzzzzzyzzzzzzzzz++++................................................................................................
(PID.TID 0000.0001) //    150 ...............................................................................................+++++zzzzzzzzyyzzzzyyyyyyyyyyyyxxxxxxxxxxxxxxxxxxxxxxxxxxxxxxxxxxxxxxxxxxxxxxxxxxxxxxxxxxxxxxxxxxxxxxxxxxxxxxyyyyyyyyyyyyzzzzyyzzzzzzzz+++++...............................................................................................
(PID.TID 0000.0001) //    149 ...............................................................................................++++zzzzzzzzyyyzzzyyyyyyyyyyyyxxxxxxxxxxxxxxxxxxxxxxxxxxxxxxxxxxxxxxxxxxxxxxxxxxxxxxxxxxxxxxxxxxxxxxxxxxxxxxxxyyyyyyyyyyyyzzzyyyzzzzzzzz++++...............................................................................................
(PID.TID 0000.0001) //    148 ..............................................................................................+++++zzzzzzzzyyyzzzyyyyyyyyyyyxxxxxxxxxxxxxxxxxxxxxxxxxxxxxwxxxxxwwwwwwwwwwwwxxxxxwxxxxxxxxxxxxxxxxxxxxxxxxxxxxxyyyyyyyyyyyzzzyyyzzzzzzzz+++++..............................................................................................
(PID.TID 0000.0001) //    147 ..............................................................................................++++zzzzzzzzyyyyzzyyyyyyyyyyyxxxxxxxxxxxxxxxxxxxxxxxxxxxwwwwxxwwwwwwwwwwwwwwwwwwxxwwwwxxxxxxxxxxxxxxxxxxxxxxxxxxxyyyyyyyyyyyzzyyyyzzzzzzzz++++..............................................................................................
(PID.TID 0000.0001) //    146 .......................................................................................+.....++++zzzzzzzzyyyyyzyyyyyyyyyyyxxxxxxxxxxxxxxxxxxxxxxxxxwwwwwwwwwwwwwwwwwwwwwwwwwwwwwwwwwwwwxxxxxxxxxxxxxxxxxxxxxxxxxyyyyyyyyyyyzyyyyyzzzzzzzz++++.....+.......................................................................................
(PID.TID 0000.0001) //    145 .......................................................................................+.....++++zzzzzzzzyyyyyzyyyyyyyyyyxxxxxxxxxxxxxxxxxxxxxxxxwwwwwwwwwwwwwwwwwwwwwwwwwwwwwwwwwwwwwwwwxxxxxxxxxxxxxxxxxxxxxxxxyyyyyyyyyyzyyyyyzzzzzzzz++++.....+.......................................................................................
(PID.TID 0000.0001) //    144 ......................................................................................++....++++zzzzzzzzyyyyyyyyyyyyyyyyxxxxxxxxxxxxxxxxxxxxxxxxwwwwwwwwwwwwwwwwwwwwwwwwwwwwwwwwwwwwwwwwwwxxxxxxxxxxxxxxxxxxxxxxxxyyyyyyyyyyyyyyyyzzzzzzzz++++....++......................................................................................
(PID.TID 0000.0001) //    143 ......................................................................................++....++++zzzzzzzzyyyyyyyyyyyyyyyyxxxxxxxxxxxxxxxxxxxxxxwwwwwwwwwwwwwwwwwwwwwwwwwwwwwwwwwwwwwwwwwwwwwwxxxxxxxxxxxxxxxxxxxxxxyyyyyyyyyyyyyyyyzzzzzzzz++++....++......................................................................................
(PID.TID 0000.0001) //    142 .....................................................................................+++...+++++zzzzzzzyyyyyyyyyyyyyyyyxxxxxxxxxxxxxxxxxxxxxxwwwwwwwwwwwwwwwwwwwwwwwwwwwwwwwwwwwwwwwwwwwwwwwwxxxxxxxxxxxxxxxxxxxxxxyyyyyyyyyyyyyyyyzzzzzzz+++++...+++.....................................................................................
(PID.TID 0000.0001) //    147 ..............................................................................................++++zzzzzzzzyyyyzzyyyyyyyyyyyxxxxxxxxxxxxxxxxxxxxxxxxxxxwwwwxxwwwwwwwwwwwwwwwwwwxxwwwwxxxxxxxxxxxxxxxxxxxxxxxxxxxyyyyyyyyyyyzzyyyyzzzzzzzz++++..............................................................................................
(PID.TID 0000.0001) //    146 .......................................................................................+.....++++zzzzzzzzyyyyyzyyyyyyyyyyyxxxxxxxxxxxxxxxxxxxxxxxxxwwwwwwwwwwwwwwwwwwwwwwwwwwwwwwwwwwwwxxxxxxxxxxxxxxxxxxxxxxxxxyyyyyyyyyyyzyyyyyzzzzzzzz++++.....+.......................................................................................
(PID.TID 0000.0001) //    145 .......................................................................................+.....++++zzzzzzzzyyyyyzyyyyyyyyyyxxxxxxxxxxxxxxxxxxxxxxxxwwwwwwwwwwwwwwwwwwwwwwwwwwwwwwwwwwwwwwwwxxxxxxxxxxxxxxxxxxxxxxxxyyyyyyyyyyzyyyyyzzzzzzzz++++.....+.......................................................................................
(PID.TID 0000.0001) //    144 ......................................................................................++....++++zzzzzzzzyyyyyyyyyyyyyyyyxxxxxxxxxxxxxxxxxxxxxxxxwwwwwwwwwwwwwwwwwwwwwwwwwwwwwwwwwwwwwwwwwwxxxxxxxxxxxxxxxxxxxxxxxxyyyyyyyyyyyyyyyyzzzzzzzz++++....++......................................................................................
(PID.TID 0000.0001) //    143 ......................................................................................++....++++zzzzzzzzyyyyyyyyyyyyyyyyxxxxxxxxxxxxxxxxxxxxxxwwwwwwwwwwwwwwwwwwwwwwwwwwwwwwwwwwwwwwwwwwwwwwxxxxxxxxxxxxxxxxxxxxxxyyyyyyyyyyyyyyyyzzzzzzzz++++....++......................................................................................
(PID.TID 0000.0001) //    142 .....................................................................................+++...+++++zzzzzzzyyyyyyyyyyyyyyyyxxxxxxxxxxxxxxxxxxxxxxwwwwwwwwwwwwwwwwwwwwwwwwwwwwwwwwwwwwwwwwwwwwwwwwxxxxxxxxxxxxxxxxxxxxxxyyyyyyyyyyyyyyyyzzzzzzz+++++...+++.....................................................................................
(PID.TID 0000.0001) //    141 .....................................................................................+++...++++zzzzzzzzyyyyyyyyyyyyyyyxxxxxxxxxxxxxxxxxxxxxxwwwwwwwwwwwwwwwwwwwwwwwwwwwwwwwwwwwwwwwwwwwwwwwwwwxxxxxxxxxxxxxxxxxxxxxxyyyyyyyyyyyyyyyzzzzzzzz++++...+++.....................................................................................
(PID.TID 0000.0001) //    140 .....................................................................................+++...++++zzzzzzzyyyyyyyyyyyyyyyyxxxxxxxxxxxxxxxxxxxxxwwwwwwwwwwwwwwwwwwwwwwwwwwwwwwwwwwwwwwwwwwwwwwwwwwwwxxxxxxxxxxxxxxxxxxxxxyyyyyyyyyyyyyyyyzzzzzzz++++...+++.....................................................................................
(PID.TID 0000.0001) //    139 ....................................................................................++++..++++zzzzzzzzyyyyyyyyyyyyyyyxxxxxxxxxxxxxxxxxxxxxwwwwwwwwwwwwwwwwwwwwwwwwwwwwwwwwwwwwwwwwwwwwwwwwwwwwwwxxxxxxxxxxxxxxxxxxxxxyyyyyyyyyyyyyyyzzzzzzzz++++..++++....................................................................................
(PID.TID 0000.0001) //    138 ....................................................................................++++..++++zzzzzzzyyyyyyyyyyyyyyyyxxxxxxxxxxxxxxwxxxxxwwwwwwwwwwwwwwwwwwwwwwwwwwwwwwwwwwwwwwwwwwwwwwwwwwwwwwwwxxxxxwxxxxxxxxxxxxxxyyyyyyyyyyyyyyyyzzzzzzz++++..++++....................................................................................
(PID.TID 0000.0001) //    137 ....................................................................................++++..++++zzzzzzzyyyyyyyyyyyyyyyxxxxxxxxxxxxxxwwxxxxwwwwwwwwwwwwwwwwwwwwwwwwwwwwwwwwwwwwwwwwwwwwwwwwwwwwwwwwwwxxxxwwxxxxxxxxxxxxxxyyyyyyyyyyyyyyyzzzzzzz++++..++++....................................................................................
(PID.TID 0000.0001) //    136 ...................................................................................++++z.++++zzzzzzzzyyyyyyyyyyyyyyyxxxxxxxxxxxxxxwwxxxxwwwwwwwwwwwwwwwwwwwwwwwwwwwwwwwwwwwwwwwwwwwwwwwwwwwwwwwwwwxxxxwwxxxxxxxxxxxxxxyyyyyyyyyyyyyyyzzzzzzzz++++.z++++...................................................................................
(PID.TID 0000.0001) //    135 ...................................................................................++++z.++++zzzzzzzyyyyyyyyyyyyyyyyxxxxxxxxxxxxxwwwxxxwwwwwwwwwwwwwwwwwwwwwwwwwwwwwwwwwwwwwwwwwwwwwwwwwwwwwwwwwwwwxxxwwwxxxxxxxxxxxxxyyyyyyyyyyyyyyyyzzzzzzz++++.z++++...................................................................................
(PID.TID 0000.0001) //    134 ...................................................................................++++z.++++zzzzzzzyyyyyyyyyxyyyyyxxxxxxxxxxxxxwwwwxxwwwwwwwwwwwwwwwwwwwwwwwwwwwwwwwwwwwwwwwwwwwwwwwwwwwwwwwwwwwwwwxxwwwwxxxxxxxxxxxxxyyyyyxyyyyyyyyyzzzzzzz++++.z++++...................................................................................
(PID.TID 0000.0001) //    133 ...................................................................................++++z.++++zzzzzzzyyyyyyyyyxyyyyyxxxxxxxxxxxxxwwwwxxwwwwwwwwwwwwwwwwwwwwwwwwwwwwwwwwwwwwwwwwwwwwwwwwwwwwwwwwwwwwwwxxwwwwxxxxxxxxxxxxxyyyyyxyyyyyyyyyzzzzzzz++++.z++++...................................................................................
(PID.TID 0000.0001) //    132 ...................................................................................+++zz.+++zzzzzzzyyyyyyyyyxxyyyyxxxxxxxxxxxxxwwwwwxwwwwwwwwwwwwwwwwwwwwwwwwwwwwwwwwwwwwwwwwwwwwwwwwwwwwwwwwwwwwwwwwxwwwwwxxxxxxxxxxxxxyyyyxxyyyyyyyyyzzzzzzz+++.zz+++...................................................................................
(PID.TID 0000.0001) //    131 ..................................................................................++++zz++++zzzzzzzyyyyyyyyyxxyyyyxxxxxxxxxxxxxwwwwwxwwwwwwwwwwwwwwwwwwwwwwwwwwwwwwwwwwwwwwwwwwwwwwwwwwwwwwwwwwwwwwwwxwwwwwxxxxxxxxxxxxxyyyyxxyyyyyyyyyzzzzzzz++++zz++++..................................................................................
(PID.TID 0000.0001) //    130 ..................................................................................++++zz++++zzzzzzzyyyyyyyyyxxyyyyxxxxxxxxxxxxxwwwwwxwwwwwwwwwwwwwwwwwwwwwwwwwwwwwwwwwwwwwwwwwwwwwwwwwwwwwwwwwwwwwwwwxwwwwwxxxxxxxxxxxxxyyyyxxyyyyyyyyyzzzzzzz++++zz++++..................................................................................
(PID.TID 0000.0001) //    135 ...................................................................................++++z.++++zzzzzzzyyyyyyyyyyyyyyyyxxxxxxxxxxxxxwwwxxxwwwwwwwwwwwwwwwwwwwwwwwwwwwwwwwwwwwwwwwwwwwwwwwwwwwwwwwwwwwwxxxwwwxxxxxxxxxxxxxyyyyyyyyyyyyyyyyzzzzzzz++++.z++++...................................................................................
(PID.TID 0000.0001) //    134 ...................................................................................++++z.++++zzzzzzzyyyyyyyyyxyyyyyxxxxxxxxxxxxxwwwwxxwwwwwwwwwwwwwwwwwwwwwwwwwwwwwwwwwwwwwwwwwwwwwwwwwwwwwwwwwwwwwwxxwwwwxxxxxxxxxxxxxyyyyyxyyyyyyyyyzzzzzzz++++.z++++...................................................................................
(PID.TID 0000.0001) //    133 ...................................................................................++++z.++++zzzzzzzyyyyyyyyyxyyyyyxxxxxxxxxxxxxwwwwxxwwwwwwwwwwwwwwwwwwwwwwwwwwwwwwwwwwwwwwwwwwwwwwwwwwwwwwwwwwwwwwxxwwwwxxxxxxxxxxxxxyyyyyxyyyyyyyyyzzzzzzz++++.z++++...................................................................................
(PID.TID 0000.0001) //    132 ...................................................................................+++zz.+++zzzzzzzyyyyyyyyyxxyyyyxxxxxxxxxxxxxwwwwwxwwwwwwwwwwwwwwwwwwwwwwwwwwwwwwwwwwwwwwwwwwwwwwwwwwwwwwwwwwwwwwwwxwwwwwxxxxxxxxxxxxxyyyyxxyyyyyyyyyzzzzzzz+++.zz+++...................................................................................
(PID.TID 0000.0001) //    131 ..................................................................................++++zz++++zzzzzzzyyyyyyyyyxxyyyyxxxxxxxxxxxxxwwwwwxwwwwwwwwwwwwwwwwwwwwwwwwwwwwwwwwwwwwwwwwwwwwwwwwwwwwwwwwwwwwwwwwxwwwwwxxxxxxxxxxxxxyyyyxxyyyyyyyyyzzzzzzz++++zz++++..................................................................................
(PID.TID 0000.0001) //    130 ..................................................................................++++zz++++zzzzzzzyyyyyyyyyxxyyyyxxxxxxxxxxxxxwwwwwxwwwwwwwwwwwwwwwwwwwwwwwwwwwwwwwwwwwwwwwwwwwwwwwwwwwwwwwwwwwwwwwwxwwwwwxxxxxxxxxxxxxyyyyxxyyyyyyyyyzzzzzzz++++zz++++..................................................................................
(PID.TID 0000.0001) //    129 ..................................................................................++++zz++++zzzzzzzyyyyyyyyyxxyyyyxxxxxxxxxxxxwwwwwwwwwwwwwwwwwwwwwwwwwwwwwwwwwwwvvvvvvvvwwwwwwwwwwwwwwwwwwwwwwwwwwwwwwwwwwwxxxxxxxxxxxxyyyyxxyyyyyyyyyzzzzzzz++++zz++++..................................................................................
(PID.TID 0000.0001) //    128 ..................................................................................++++zz++++zzzzzzzyyyyyyyyyxxyyyyxxxxxxxxxxxxwwwwwwwwwwwwwwwwwwwwwwwwwwwvwwwwwvvvvvvvvvvvvwwwwwvwwwwwwwwwwwwwwwwwwwwwwwwwwwxxxxxxxxxxxxyyyyxxyyyyyyyyyzzzzzzz++++zz++++..................................................................................
(PID.TID 0000.0001) //    127 ..................................................................................++++zz++++zzzzzzzyyyyyyyyxxxyyyxxxxxxxxxxxxxwwwwwwwwwwwwwwwwwwwwwwwwwwvvwwwwvvvvvvvvvvvvvvwwwwvvwwwwwwwwwwwwwwwwwwwwwwwwwwxxxxxxxxxxxxxyyyxxxyyyyyyyyzzzzzzz++++zz++++..................................................................................
(PID.TID 0000.0001) //    126 ..................................................................................++++zz++++zzzzzzyyyyyyyyyxxxyyyxxxxxxxxxxxxwwwwwwwwwwwwwwwwwwwwwwwwwwwvvwwwwvvvvvvvvvvvvvvwwwwvvwwwwwwwwwwwwwwwwwwwwwwwwwwwxxxxxxxxxxxxyyyxxxyyyyyyyyyzzzzzz++++zz++++..................................................................................
(PID.TID 0000.0001) //    125 ..................................................................................+++zzz+++zzzzzzzyyyyyyyyyxxxyyyxxxxxxxxxxxxwwwwwwwwwwwwwwwwwwwwwwwwwwvvvwwwvvvvvvvvvvvvvvvvwwwvvvwwwwwwwwwwwwwwwwwwwwwwwwwwxxxxxxxxxxxxyyyxxxyyyyyyyyyzzzzzzz+++zzz+++..................................................................................
(PID.TID 0000.0001) //    124 ..................................................................................+++zzz+++zzzzzzzyyyyyyyyyxxxyyyxxxxxxxxxxxxwwwwwwwwwwwwwwwwwwwwwwwwwvvvvwwvvvvvvvvvvvvvvvvvvwwvvvvwwwwwwwwwwwwwwwwwwwwwwwwwxxxxxxxxxxxxyyyxxxyyyyyyyyyzzzzzzz+++zzz+++..................................................................................
(PID.TID 0000.0001) //    123 .................................................................................++++zzz+++zzzzzzzyyyyyyyyyxxxyyyxxxxxxxxxxxxwwwwwwwwwwwwwwwwwwwwwwwwwvvvvwwvvvvvvvvvvvvvvvvvvwwvvvvwwwwwwwwwwwwwwwwwwwwwwwwwxxxxxxxxxxxxyyyxxxyyyyyyyyyzzzzzzz+++zzz++++.................................................................................
(PID.TID 0000.0001) //    122 .................................................................................++++zzz+++zzzzzzzyyyyyyyyyxxxyyyxxxxxxxxxxxxwwwwwwwwwwwwwwwwwwwwwwwwwvvvvwwvvvvvvvvvvvvvvvvvvwwvvvvwwwwwwwwwwwwwwwwwwwwwwwwwxxxxxxxxxxxxyyyxxxyyyyyyyyyzzzzzzz+++zzz++++.................................................................................
(PID.TID 0000.0001) //    121 .................................................................................++++zzz+++zzzzzzzyyyyyyyyyxxxyyyxxxxxxxxxxxxwwwwwwwwwwwwwwwwwwwwwwwwwvvvvwwvvvvvvvvvvvvvvvvvvwwvvvvwwwwwwwwwwwwwwwwwwwwwwwwwxxxxxxxxxxxxyyyxxxyyyyyyyyyzzzzzzz+++zzz++++.................................................................................
(PID.TID 0000.0001) //    120 vvvvvvvvvvvvvvvvvvvvvvvvvvvvvvvvvvvvvvvvvvvvvvvvvvvvvvvvvvvvvvvvvvvvvvvvvvvvvvvvvvvvvvvvvvvvvvvvvvvvvvvvvvvvvvvvvvvvvvvvvvvvvvvvvvvvvvvvvvvvvvvvvvvvvvvvvvvvvvvvvvvvvvvvvvvvvvvvvvvvvvvvvvvvvvvvvvvvvvvvvvvvvvvvvvvvvvvvvvvvvvvvvvvvvvvvvvvvvvvvvvvvvvvvvvvvvvvvvvvvvvvvvvvvvvvvvvvvvvvvvvvvvvvvvvvvvvvvvvvvvvvvvvvvvvvvvvvvvvvvvvvvvvvvvv
(PID.TID 0000.0001) //    119 vvvvvvvvvvvvvvvvvvvvvvvvvvvvvvvvvvvvvvvvvvvvvvvvvvvvvvvvvvvvvvvvvvvvvvvvvvvvvvvvvvvvvvvvvvvvvvvvvvvvvvvvvvvvvvvvvvvvvvvvvvvvvvvvvvvvvvvvvvvvvvvvvvvvvvvvvvvvvvvvvvvvvvvvvvvvvvvvvvvvvvvvvvvvvvvvvvvvvvvvvvvvvvvvvvvvvvvvvvvvvvvvvvvvvvvvvvvvvvvvvvvvvvvvvvvvvvvvvvvvvvvvvvvvvvvvvvvvvvvvvvvvvvvvvvvvvvvvvvvvvvvvvvvvvvvvvvvvvvvvvvvvvvvvvv
(PID.TID 0000.0001) //    118 vvvvvvvvvvvvvvvvvvvvvvvvvvvvvvvvvvvvvvvvvvvvvvvvvvvvvvvvvvvvvvvvvvvvvvvvvvvvvvvvvvvvvvvvvvvvvvvvvvvvvvvvvvvvvvvvvvvvvvvvvvvvvvvvvvvvvvvvvvvvvvvvvvvvvvvvvvvvvvvvvvvvvvvvvvvvvvvvvvvvvvvvvvvvvvvvvvvvvvvvvvvvvvvvvvvvvvvvvvvvvvvvvvvvvvvvvvvvvvvvvvvvvvvvvvvvvvvvvvvvvvvvvvvvvvvvvvvvvvvvvvvvvvvvvvvvvvvvvvvvvvvvvvvvvvvvvvvvvvvvvvvvvvvvvv
(PID.TID 0000.0001) //    123 .................................................................................++++zzz+++zzzzzzzyyyyyyyyyxxxyyyxxxxxxxxxxxxwwwwwwwwwwwwwwwwwwwwwwwwwvvvvwwvvvvvvvvvvvvvvvvvvwwvvvvwwwwwwwwwwwwwwwwwwwwwwwwwxxxxxxxxxxxxyyyxxxyyyyyyyyyzzzzzzz+++zzz++++.................................................................................
(PID.TID 0000.0001) //    122 .................................................................................++++zzz+++zzzzzzzyyyyyyyyyxxxyyyxxxxxxxxxxxxwwwwwwwwwwwwwwwwwwwwwwwwwvvvvwwvvvvvvvvvvvvvvvvvvwwvvvvwwwwwwwwwwwwwwwwwwwwwwwwwxxxxxxxxxxxxyyyxxxyyyyyyyyyzzzzzzz+++zzz++++.................................................................................
(PID.TID 0000.0001) //    121 .................................................................................++++zzz+++zzzzzzzyyyyyyyyyxxxyyyxxxxxxxxxxxxwwwwwwwwwwwwwwwwwwwwwwwwwvvvvwwvvvvvvvvvvvvvvvvvvwwvvvvwwwwwwwwwwwwwwwwwwwwwwwwwxxxxxxxxxxxxyyyxxxyyyyyyyyyzzzzzzz+++zzz++++.................................................................................
(PID.TID 0000.0001) //    120 vvvvvvvvvvvvvvvvvvvvvvvvvvvvvvvvvvvvvvvvvvvvvvvvvvvvvvvvvvvvvvvvvvvvvvvvvvvvvvvvvvvvvvvvvvvvvvvvvvvvvvvvvvvvvvvvvvvvvvvvvvvvvvvvvvvvvvvvvvvvvvvvvvvvvvvvvvvvvvvvvvvvvvvvvvvvvvvvvvvvvvvvvvvvvvvvvvvvvvvvvvvvvvvvvvvvvvvvvvvvvvvvvvvvvvvvvvvvvvvvvvvvvvvvvvvvvvvvvvvvvvvvvvvvvvvvvvvvvvvvvvvvvvvvvvvvvvvvvvvvvvvvvvvvvvvvvvvvvvvvvvvvvvvvvv
(PID.TID 0000.0001) //    119 vvvvvvvvvvvvvvvvvvvvvvvvvvvvvvvvvvvvvvvvvvvvvvvvvvvvvvvvvvvvvvvvvvvvvvvvvvvvvvvvvvvvvvvvvvvvvvvvvvvvvvvvvvvvvvvvvvvvvvvvvvvvvvvvvvvvvvvvvvvvvvvvvvvvvvvvvvvvvvvvvvvvvvvvvvvvvvvvvvvvvvvvvvvvvvvvvvvvvvvvvvvvvvvvvvvvvvvvvvvvvvvvvvvvvvvvvvvvvvvvvvvvvvvvvvvvvvvvvvvvvvvvvvvvvvvvvvvvvvvvvvvvvvvvvvvvvvvvvvvvvvvvvvvvvvvvvvvvvvvvvvvvvvvvvv
(PID.TID 0000.0001) //    118 vvvvvvvvvvvvvvvvvvvvvvvvvvvvvvvvvvvvvvvvvvvvvvvvvvvvvvvvvvvvvvvvvvvvvvvvvvvvvvvvvvvvvvvvvvvvvvvvvvvvvvvvvvvvvvvvvvvvvvvvvvvvvvvvvvvvvvvvvvvvvvvvvvvvvvvvvvvvvvvvvvvvvvvvvvvvvvvvvvvvvvvvvvvvvvvvvvvvvvvvvvvvvvvvvvvvvvvvvvvvvvvvvvvvvvvvvvvvvvvvvvvvvvvvvvvvvvvvvvvvvvvvvvvvvvvvvvvvvvvvvvvvvvvvvvvvvvvvvvvvvvvvvvvvvvvvvvvvvvvvvvvvvvvvvv
(PID.TID 0000.0001) //    117 uuuuuuuuuuuuuuuuuuuuuuuuuuuuuuuuuuuuuuuuuuuuuuuuuuuuuuuuuuuuuuuuuuuuuuuuuuuuuuuuuuuuuuuuuuuuuuuuuuuuuuuuuuuuuuuuuuuuuuuuuuuuuuuuuuuuuuuuuuuuuuuuuuuuuuuuuuuuuuuuuuuuuuuuuuuuuuuuuuuuuuuuuuuuuuuuuuuuuuuuuuuuuuuuuuuuuuuuuuuuuuuuuuuuuuuuuuuuuuuuuuuuuuuuuuuuuuuuuuuuuuuuuuuuuuuuuuuuuuuuuuuuuuuuuuuuuuuuuuuuuuuuuuuuuuuuuuuuuuuuuuuuuuuuuu
(PID.TID 0000.0001) //    116 uuuuuuuuuuuuuuuuuuuuuuuuuuuuuuuuuuuuuuuuuuuuuuuuuuuuuuuuuuuuuuuuuuuuuuuuuuuuuuuuuuuuuuuuuuuuuuuuuuuuuuuuuuuuuuuuuuuuuuuuuuuuuuuuuuuuuuuuuuuuuuuuuuuuuuuuuuuuuuuuuuuuuuuuuuuuuuuuuuuuuuuuuuuuuuuuuuuuuuuuuuuuuuuuuuuuuuuuuuuuuuuuuuuuuuuuuuuuuuuuuuuuuuuuuuuuuuuuuuuuuuuuuuuuuuuuuuuuuuuuuuuuuuuuuuuuuuuuuuuuuuuuuuuuuuuuuuuuuuuuuuuuuuuuuu
(PID.TID 0000.0001) //    115 uuuuuuuuuuuuuuuuuuuuuuuuuuuuuuuuuuuuuuuuuuuuuuuuuuuuuuuuuuuuuuuuuuuuuuuuuuuuuuuuuuuuuuuuuuuuuuuuuuuuuuuuuuuuuuuuuuuuuuuuuuuuuuuuuuuuuuuuuuuuuuuuuuuuuuuuuuuuuuuuuuuuuuuuuuuuuuuuuuuuuuuuuuuuuuuuuuuuuuuuuuuuuuuuuuuuuuuuuuuuuuuuuuuuuuuuuuuuuuuuuuuuuuuuuuuuuuuuuuuuuuuuuuuuuuuuuuuuuuuuuuuuuuuuuuuuuuuuuuuuuuuuuuuuuuuuuuuuuuuuuuuuuuuuuu
(PID.TID 0000.0001) //    114 tttttttttttttttttttttttttttttttttttttttttttttttttttttttttttttttttttttttttttttttttttttttttttttttttttttttttttttttttttttttttttttttttttttttttttttttttttttttttttttttttttttttttttttttttttttttttttttttttttttttttttttttttttttttttttttttttttttttttttttttttttttttttttttttttttttttttttttttttttttttttttttttttttttttttttttttttttttttttttttttttttttttttt
(PID.TID 0000.0001) //    113 tttttttttttttttttttttttttttttttttttttttttttttttttttttttttttttttttttttttttttttttttttttttttttttttttttttttttttttttttttttttttttttttttttttttttttttttttttttttttttttttttttttttttttttttttttttttttttttttttttttttttttttttttttttttttttttttttttttttttttttttttttttttttttttttttttttttttttttttttttttttttttttttttttttttttttttttttttttttttttttttttttttttttt
(PID.TID 0000.0001) //    112 tttttttttttttttttttttttttttttttttttttttttttttttttttttttttttttttttttttttttttttttttttttttttttttttttttttttttttttttttttttttttttttttttttttttttttttttttttttttttttttttttttttttttttttttttttttttttttttttttttttttttttttttttttttttttttttttttttttttttttttttttttttttttttttttttttttttttttttttttttttttttttttttttttttttttttttttttttttttttttttttttttttttttt
(PID.TID 0000.0001) //    111 ssssssssssssssssssssssssssssssssssssssssssssssssssssssssssssssssssssssssssssssssssssssssssssssssssssssssssssssssssssssssssssssssssssssssssssssssssssssssssssssssssssssssssssssssssssssssssssssssssssssssssssssssssssssssssssssssssssssssssssssssssssssssssssssssssssssssssssssssssssssssssssssssssssssssssssssssssssssssssssssssssssssssss
(PID.TID 0000.0001) //    110 ssssssssssssssssssssssssssssssssssssssssssssssssssssssssssssssssssssssssssssssssssssssssssssssssssssssssssssssssssssssssssssssssssssssssssssssssssssssssssssssssssssssssssssssssssssssssssssssssssssssssssssssssssssssssssssssssssssssssssssssssssssssssssssssssssssssssssssssssssssssssssssssssssssssssssssssssssssssssssssssssssssssssss
(PID.TID 0000.0001) //    109 rrrrrrrrrrrrrrrrrrrrrrrrrrrrrrrrrrrrrrrrrrrrrrrrrrrrrrrrrrrrrrrrrrrrrrrrrrrrrrrrrrrrrrrrrrrrrrrrrrrrrrrrrrrrrrrrrrrrrrrrrrrrrrrrrrrrrrrrrrrrrrrrrrrrrrrrrrrrrrrrrrrrrrrrrrrrrrrrrrrrrrrrrrrrrrrrrrrrrrrrrrrrrrrrrrrrrrrrrrrrrrrrrrrrrrrrrrrrrrrrrrrrrrrrrrrrrrrrrrrrrrrrrrrrrrrrrrrrrrrrrrrrrrrrrrrrrrrrrrrrrrrrrrrrrrrrrrrrrrrrrrrrrrrrrr
(PID.TID 0000.0001) //    108 rrrrrrrrrrrrrrrrrrrrrrrrrrrrrrrrrrrrrrrrrrrrrrrrrrrrrrrrrrrrrrrrrrrrrrrrrrrrrrrrrrrrrrrrrrrrrrrrrrrrrrrrrrrrrrrrrrrrrrrrrrrrrrrrrrrrrrrrrrrrrrrrrrrrrrrrrrrrrrrrrrrrrrrrrrrrrrrrrrrrrrrrrrrrrrrrrrrrrrrrrrrrrrrrrrrrrrrrrrrrrrrrrrrrrrrrrrrrrrrrrrrrrrrrrrrrrrrrrrrrrrrrrrrrrrrrrrrrrrrrrrrrrrrrrrrrrrrrrrrrrrrrrrrrrrrrrrrrrrrrrrrrrrrrrr
(PID.TID 0000.0001) //    107 rrrrrrrrrrrrrrrrrrrrrrrrrrrrrrrrrrrrrrrrrrrrrrrrrrrrrrrrrrrrrrrrrrrrrrrrrrrrrrrrrrrrrrrrrrrrrrrrrrrrrrrrrrrrrrrrrrrrrrrrrrrrrrrrrrrrrrrrrrrrrrrrrrrrrrrrrrrrrrrrrrrrrrrrrrrrrrrrrrrrrrrrrrrrrrrrrrrrrrrrrrrrrrrrrrrrrrrrrrrrrrrrrrrrrrrrrrrrrrrrrrrrrrrrrrrrrrrrrrrrrrrrrrrrrrrrrrrrrrrrrrrrrrrrrrrrrrrrrrrrrrrrrrrrrrrrrrrrrrrrrrrrrrrrrr
(PID.TID 0000.0001) //    106 qqqqqqqqqqqqqqqqqqqqqqqqqqqqqqqqqqqqqqqqqqqqqqqqqqqqqqqqqqqqqqqqqqqqqqqqqqqqqqqqqqqqqqqqqqqqqqqqqqqqqqqqqqqqqqqqqqqqqqqqqqqqqqqqqqqqqqqqqqqqqqqqqqqqqqqqqqqqqqqqqqqqqqqqqqqqqqqqqqqqqqqqqqqqqqqqqqqqqqqqqqqqqqqqqqqqqqqqqqqqqqqqqqqqqqqqqqqqqqqqqqqqqqqqqqqqqqqqqqqqqqqqqqqqqqqqqqqqqqqqqqqqqqqqqqqqqqqqqqqqqqqqqqqqqqqqqqqqqqqqqqqqqqqqqq
(PID.TID 0000.0001) //    111 ssssssssssssssssssssssssssssssssssssssssssssssssssssssssssssssssssssssssssssssssssssssssssssssssssssssssssssssssssssssssssssssssssssssssssssssssssssssssssssssssssssssssssssssssssssssssssssssssssssssssssssssssssssssssssssssssssssssssssssssssssssssssssssssssssssssssssssssssssssssssssssssssssssssssssssssssssssssssssssssssssssssssss
(PID.TID 0000.0001) //    110 ssssssssssssssssssssssssssssssssssssssssssssssssssssssssssssssssssssssssssssssssssssssssssssssssssssssssssssssssssssssssssssssssssssssssssssssssssssssssssssssssssssssssssssssssssssssssssssssssssssssssssssssssssssssssssssssssssssssssssssssssssssssssssssssssssssssssssssssssssssssssssssssssssssssssssssssssssssssssssssssssssssssssss
(PID.TID 0000.0001) //    109 rrrrrrrrrrrrrrrrrrrrrrrrrrrrrrrrrrrrrrrrrrrrrrrrrrrrrrrrrrrrrrrrrrrrrrrrrrrrrrrrrrrrrrrrrrrrrrrrrrrrrrrrrrrrrrrrrrrrrrrrrrrrrrrrrrrrrrrrrrrrrrrrrrrrrrrrrrrrrrrrrrrrrrrrrrrrrrrrrrrrrrrrrrrrrrrrrrrrrrrrrrrrrrrrrrrrrrrrrrrrrrrrrrrrrrrrrrrrrrrrrrrrrrrrrrrrrrrrrrrrrrrrrrrrrrrrrrrrrrrrrrrrrrrrrrrrrrrrrrrrrrrrrrrrrrrrrrrrrrrrrrrrrrrrrr
(PID.TID 0000.0001) //    108 rrrrrrrrrrrrrrrrrrrrrrrrrrrrrrrrrrrrrrrrrrrrrrrrrrrrrrrrrrrrrrrrrrrrrrrrrrrrrrrrrrrrrrrrrrrrrrrrrrrrrrrrrrrrrrrrrrrrrrrrrrrrrrrrrrrrrrrrrrrrrrrrrrrrrrrrrrrrrrrrrrrrrrrrrrrrrrrrrrrrrrrrrrrrrrrrrrrrrrrrrrrrrrrrrrrrrrrrrrrrrrrrrrrrrrrrrrrrrrrrrrrrrrrrrrrrrrrrrrrrrrrrrrrrrrrrrrrrrrrrrrrrrrrrrrrrrrrrrrrrrrrrrrrrrrrrrrrrrrrrrrrrrrrrrr
(PID.TID 0000.0001) //    107 rrrrrrrrrrrrrrrrrrrrrrrrrrrrrrrrrrrrrrrrrrrrrrrrrrrrrrrrrrrrrrrrrrrrrrrrrrrrrrrrrrrrrrrrrrrrrrrrrrrrrrrrrrrrrrrrrrrrrrrrrrrrrrrrrrrrrrrrrrrrrrrrrrrrrrrrrrrrrrrrrrrrrrrrrrrrrrrrrrrrrrrrrrrrrrrrrrrrrrrrrrrrrrrrrrrrrrrrrrrrrrrrrrrrrrrrrrrrrrrrrrrrrrrrrrrrrrrrrrrrrrrrrrrrrrrrrrrrrrrrrrrrrrrrrrrrrrrrrrrrrrrrrrrrrrrrrrrrrrrrrrrrrrrrrr
(PID.TID 0000.0001) //    106 qqqqqqqqqqqqqqqqqqqqqqqqqqqqqqqqqqqqqqqqqqqqqqqqqqqqqqqqqqqqqqqqqqqqqqqqqqqqqqqqqqqqqqqqqqqqqqqqqqqqqqqqqqqqqqqqqqqqqqqqqqqqqqqqqqqqqqqqqqqqqqqqqqqqqqqqqqqqqqqqqqqqqqqqqqqqqqqqqqqqqqqqqqqqqqqqqqqqqqqqqqqqqqqqqqqqqqqqqqqqqqqqqqqqqqqqqqqqqqqqqqqqqqqqqqqqqqqqqqqqqqqqqqqqqqqqqqqqqqqqqqqqqqqqqqqqqqqqqqqqqqqqqqqqqqqqqqqqqqqqqqqqqqqqqq
(PID.TID 0000.0001) //    105 qqqqqqqqqqqqqqqqqqqqqqqqqqqqqqqqqqqqqqqqqqqqqqqqqqqqqqqqqqqqqqqqqqqqqqqqqqqqqqqqqqqqqqqqqqqqqqqqqqqqqqqqqqqqqqqqqqqqqqqqqqqqqqqqqqqqqqqqqqqqqqqqqqqqqqqqqqqqqqqqqqqqqqqqqqqqqqqqqqqqqqqqqqqqqqqqqqqqqqqqqqqqqqqqqqqqqqqqqqqqqqqqqqqqqqqqqqqqqqqqqqqqqqqqqqqqqqqqqqqqqqqqqqqqqqqqqqqqqqqqqqqqqqqqqqqqqqqqqqqqqqqqqqqqqqqqqqqqqqqqqqqqqqqqqq
(PID.TID 0000.0001) //    104 qqqqqqqqqqqqqqqqqqqqqqqqqqqqqqqqqqqqqqqqqqqqqqqqqqqqqqqqqqqqqqqqqqqqqqqqqqqqqqqqqqqqqqqqqqqqqqqqqqqqqqqqqqqqqqqqqqqqqqqqqqqqqqqqqqqqqqqqqqqqqqqqqqqqqqqqqqqqqqqqqqqqqqqqqqqqqqqqqqqqqqqqqqqqqqqqqqqqqqqqqqqqqqqqqqqqqqqqqqqqqqqqqqqqqqqqqqqqqqqqqqqqqqqqqqqqqqqqqqqqqqqqqqqqqqqqqqqqqqqqqqqqqqqqqqqqqqqqqqqqqqqqqqqqqqqqqqqqqqqqqqqqqqqqqq
(PID.TID 0000.0001) //    103 pppppppppppppppppppppppppppppppppppppppppppppppppppppppppppppppppppppppppppppppppppppppppppppppppppppppppppppppppppppppppppppppppppppppppppppppppppppppppppppppppppppppppppppppppppppppppppppppppppppppppppppppppppppppppppppppppppppppppppppppppppppppppppppppppppppppppppppppppppppppppppppppppppppppppppppppppppppppppppppppppppppppppp
(PID.TID 0000.0001) //    102 pppppppppppppppppppppppppppppppppppppppppppppppppppppppppppppppppppppppppppppppppppppppppppppppppppppppppppppppppppppppppppppppppppppppppppppppppppppppppppppppppppppppppppppppppppppppppppppppppppppppppppppppppppppppppppppppppppppppppppppppppppppppppppppppppppppppppppppppppppppppppppppppppppppppppppppppppppppppppppppppppppppppppp
(PID.TID 0000.0001) //    101 pppppppppppppppppppppppppppppppppppppppppppppppppppppppppppppppppppppppppppppppppppppppppppppppppppppppppppppppppppppppppppppppppppppppppppppppppppppppppppppppppppppppppppppppppppppppppppppppppppppppppppppppppppppppppppppppppppppppppppppppppppppppppppppppppppppppppppppppppppppppppppppppppppppppppppppppppppppppppppppppppppppppppp
(PID.TID 0000.0001) //    100 oooooooooooooooooooooooooooooooooooooooooooooooooooooooooooooooooooooooooooooooooooooooooooooooooooooooooooooooooooooooooooooooooooooooooooooooooooooooooooooooooooooooooooooooooooooooooooooooooooooooooooooooooooooooooooooooooooooooooooooooooooooooooooooooooooooooooooooooooooooooooooooooooooooooooooooooooooooooooooooooooooooooooo
(PID.TID 0000.0001) //     99 oooooooooooooooooooooooooooooooooooooooooooooooooooooooooooooooooooooooooooooooooooooooooooooooooooooooooooooooooooooooooooooooooooooooooooooooooooooooooooooooooooooooooooooooooooooooooooooooooooooooooooooooooooooooooooooooooooooooooooooooooooooooooooooooooooooooooooooooooooooooooooooooooooooooooooooooooooooooooooooooooooooooooo
(PID.TID 0000.0001) //     98 oooooooooooooooooooooooooooooooooooooooooooooooooooooooooooooooooooooooooooooooooooooooooooooooooooooooooooooooooooooooooooooooooooooooooooooooooooooooooooooooooooooooooooooooooooooooooooooooooooooooooooooooooooooooooooooooooooooooooooooooooooooooooooooooooooooooooooooooooooooooooooooooooooooooooooooooooooooooooooooooooooooooooo
(PID.TID 0000.0001) //     97 oooooooooooooooooooooooooooooooooooooooooooooooooooooooooooooooooooooooooooooooooooooooooooooooooooooooooooooooooooooooooooooooooooooooooooooooooooooooooooooooooooooooooooooooooooooooooooooooooooooooooooooooooooooooooooooooooooooooooooooooooooooooooooooooooooooooooooooooooooooooooooooooooooooooooooooooooooooooooooooooooooooooooo
(PID.TID 0000.0001) //     96 nnnnnnnnnnnnnnnnnnnnnnnnnnnnnnnnnnnnnnnnnnnnnnnnnnnnnnnnnnnnnnnnnnnnnnnnnnnnnnnnnnnnnnnnnnnnnnnnnnnnnnnnnnnnnnnnnnnnnnnnnnnnnnnnnnnnnnnnnnnnnnnnnnnnnnnnnnnnnnnnnnnnnnnnnnnnnnnnnnnnnnnnnnnnnnnnnnnnnnnnnnnnnnnnnnnnnnnnnnnnnnnnnnnnnnnnnnnnnnnnnnnnnnnnnnnnnnnnnnnnnnnnnnnnnnnnnnnnnnnnnnnnnnnnnnnnnnnnnnnnnnnnnnnnnnnnnnnnnnnnnnnnnnnnnn
(PID.TID 0000.0001) //     95 nnnnnnnnnnnnnnnnnnnnnnnnnnnnnnnnnnnnnnnnnnnnnnnnnnnnnnnnnnnnnnnnnnnnnnnnnnnnnnnnnnnnnnnnnnnnnnnnnnnnnnnnnnnnnnnnnnnnnnnnnnnnnnnnnnnnnnnnnnnnnnnnnnnnnnnnnnnnnnnnnnnnnnnnnnnnnnnnnnnnnnnnnnnnnnnnnnnnnnnnnnnnnnnnnnnnnnnnnnnnnnnnnnnnnnnnnnnnnnnnnnnnnnnnnnnnnnnnnnnnnnnnnnnnnnnnnnnnnnnnnnnnnnnnnnnnnnnnnnnnnnnnnnnnnnnnnnnnnnnnnnnnnnnnnn
(PID.TID 0000.0001) //     94 nnnnnnnnnnnnnnnnnnnnnnnnnnnnnnnnnnnnnnnnnnnnnnnnnnnnnnnnnnnnnnnnnnnnnnnnnnnnnnnnnnnnnnnnnnnnnnnnnnnnnnnnnnnnnnnnnnnnnnnnnnnnnnnnnnnnnnnnnnnnnnnnnnnnnnnnnnnnnnnnnnnnnnnnnnnnnnnnnnnnnnnnnnnnnnnnnnnnnnnnnnnnnnnnnnnnnnnnnnnnnnnnnnnnnnnnnnnnnnnnnnnnnnnnnnnnnnnnnnnnnnnnnnnnnnnnnnnnnnnnnnnnnnnnnnnnnnnnnnnnnnnnnnnnnnnnnnnnnnnnnnnnnnnnnn
(PID.TID 0000.0001) //     99 oooooooooooooooooooooooooooooooooooooooooooooooooooooooooooooooooooooooooooooooooooooooooooooooooooooooooooooooooooooooooooooooooooooooooooooooooooooooooooooooooooooooooooooooooooooooooooooooooooooooooooooooooooooooooooooooooooooooooooooooooooooooooooooooooooooooooooooooooooooooooooooooooooooooooooooooooooooooooooooooooooooooooo
(PID.TID 0000.0001) //     98 oooooooooooooooooooooooooooooooooooooooooooooooooooooooooooooooooooooooooooooooooooooooooooooooooooooooooooooooooooooooooooooooooooooooooooooooooooooooooooooooooooooooooooooooooooooooooooooooooooooooooooooooooooooooooooooooooooooooooooooooooooooooooooooooooooooooooooooooooooooooooooooooooooooooooooooooooooooooooooooooooooooooooo
(PID.TID 0000.0001) //     97 oooooooooooooooooooooooooooooooooooooooooooooooooooooooooooooooooooooooooooooooooooooooooooooooooooooooooooooooooooooooooooooooooooooooooooooooooooooooooooooooooooooooooooooooooooooooooooooooooooooooooooooooooooooooooooooooooooooooooooooooooooooooooooooooooooooooooooooooooooooooooooooooooooooooooooooooooooooooooooooooooooooooooo
(PID.TID 0000.0001) //     96 nnnnnnnnnnnnnnnnnnnnnnnnnnnnnnnnnnnnnnnnnnnnnnnnnnnnnnnnnnnnnnnnnnnnnnnnnnnnnnnnnnnnnnnnnnnnnnnnnnnnnnnnnnnnnnnnnnnnnnnnnnnnnnnnnnnnnnnnnnnnnnnnnnnnnnnnnnnnnnnnnnnnnnnnnnnnnnnnnnnnnnnnnnnnnnnnnnnnnnnnnnnnnnnnnnnnnnnnnnnnnnnnnnnnnnnnnnnnnnnnnnnnnnnnnnnnnnnnnnnnnnnnnnnnnnnnnnnnnnnnnnnnnnnnnnnnnnnnnnnnnnnnnnnnnnnnnnnnnnnnnnnnnnnnnn
(PID.TID 0000.0001) //     95 nnnnnnnnnnnnnnnnnnnnnnnnnnnnnnnnnnnnnnnnnnnnnnnnnnnnnnnnnnnnnnnnnnnnnnnnnnnnnnnnnnnnnnnnnnnnnnnnnnnnnnnnnnnnnnnnnnnnnnnnnnnnnnnnnnnnnnnnnnnnnnnnnnnnnnnnnnnnnnnnnnnnnnnnnnnnnnnnnnnnnnnnnnnnnnnnnnnnnnnnnnnnnnnnnnnnnnnnnnnnnnnnnnnnnnnnnnnnnnnnnnnnnnnnnnnnnnnnnnnnnnnnnnnnnnnnnnnnnnnnnnnnnnnnnnnnnnnnnnnnnnnnnnnnnnnnnnnnnnnnnnnnnnnnnn
(PID.TID 0000.0001) //     94 nnnnnnnnnnnnnnnnnnnnnnnnnnnnnnnnnnnnnnnnnnnnnnnnnnnnnnnnnnnnnnnnnnnnnnnnnnnnnnnnnnnnnnnnnnnnnnnnnnnnnnnnnnnnnnnnnnnnnnnnnnnnnnnnnnnnnnnnnnnnnnnnnnnnnnnnnnnnnnnnnnnnnnnnnnnnnnnnnnnnnnnnnnnnnnnnnnnnnnnnnnnnnnnnnnnnnnnnnnnnnnnnnnnnnnnnnnnnnnnnnnnnnnnnnnnnnnnnnnnnnnnnnnnnnnnnnnnnnnnnnnnnnnnnnnnnnnnnnnnnnnnnnnnnnnnnnnnnnnnnnnnnnnnnnn
(PID.TID 0000.0001) //     93 nnnnnnnnnnnnnnnnnnnnnnnnnnnnnnnnnnnnnnnnnnnnnnnnnnnnnnnnnnnnnnnnnnnnnnnnnnnnnnnnnnnnnnnnnnnnnnnnnnnnnnnnnnnnnnnnnnnnnnnnnnnnnnnnnnnnnnnnnnnnnnnnnnnnnnnnnnnnnnnnnnnnnnnnnnnnnnnnnnnnnnnnnnnnnnnnnnnnnnnnnnnnnnnnnnnnnnnnnnnnnnnnnnnnnnnnnnnnnnnnnnnnnnnnnnnnnnnnnnnnnnnnnnnnnnnnnnnnnnnnnnnnnnnnnnnnnnnnnnnnnnnnnnnnnnnnnnnnnnnnnnnnnnnnnn
(PID.TID 0000.0001) //     92 llllllllllllllllllllllllllllllllllllllllllllllllllllllllllllllllllllllllllllllllllllllllllllllllllllllllllllllllllllllllllllllllllllllllllllllllllllllllllllllllllllllllllllllllllllllllllllllllllllllllllllllllllllllllllllllllllllllllllllllllllllllllllllllllllllllllllllllllllllllllllllllllllllllllllllllllllllllllllllllllllllllllll
(PID.TID 0000.0001) //     91 llllllllllllllllllllllllllllllllllllllllllllllllllllllllllllllllllllllllllllllllllllllllllllllllllllllllllllllllllllllllllllllllllllllllllllllllllllllllllllllllllllllllllllllllllllllllllllllllllllllllllllllllllllllllllllllllllllllllllllllllllllllllllllllllllllllllllllllllllllllllllllllllllllllllllllllllllllllllllllllllllllllllll
(PID.TID 0000.0001) //     90 llllllllllllllllllllllllllllllllllllllllllllllllllllllllllllllllllllllllllllllllllllllllllllllllllllllllllllllllllllllllllllllllllllllllllllllllllllllllllllllllllllllllllllllllllllllllllllllllllllllllllllllllllllllllllllllllllllllllllllllllllllllllllllllllllllllllllllllllllllllllllllllllllllllllllllllllllllllllllllllllllllllllll
(PID.TID 0000.0001) //     89 llllllllllllllllllllllllllllllllllllllllllllllllllllllllllllllllllllllllllllllllllllllllllllllllllllllllllllllllllllllllllllllllllllllllllllllllllllllllllllllllllllllllllllllllllllllllllllllllllllllllllllllllllllllllllllllllllllllllllllllllllllllllllllllllllllllllllllllllllllllllllllllllllllllllllllllllllllllllllllllllllllllllll
(PID.TID 0000.0001) //     88 kkkkkkkkkkkkkkkkkkkkkkkkkkkkkkkkkkkkkkkkkkkkkkkkkkkkkkkkkkkkkkkkkkkkkkkkkkkkkkkkkkkkkkkkkkkkkkkkkkkkkkkkkkkkkkkkkkkkkkkkkkkkkkkkkkkkkkkkkkkkkkkkkkkkkkkkkkkkkkkkkkkkkkkkkkkkkkkkkkkkkkkkkkkkkkkkkkkkkkkkkkkkkkkkkkkkkkkkkkkkkkkkkkkkkkkkkkkkkkkkkkkkkkkkkkkkkkkkkkkkkkkkkkkkkkkkkkkkkkkkkkkkkkkkkkkkkkkkkkkkkkkkkkkkkkkkkkkkkkkkkkkkkkkkkk
(PID.TID 0000.0001) //     87 kkkkkkkkkkkkkkkkkkkkkkkkkkkkkkkkkkkkkkkkkkkkkkkkkkkkkkkkkkkkkkkkkkkkkkkkkkkkkkkkkkkkkkkkkkkkkkkkkkkkkkkkkkkkkkkkkkkkkkkkkkkkkkkkkkkkkkkkkkkkkkkkkkkkkkkkkkkkkkkkkkkkkkkkkkkkkkkkkkkkkkkkkkkkkkkkkkkkkkkkkkkkkkkkkkkkkkkkkkkkkkkkkkkkkkkkkkkkkkkkkkkkkkkkkkkkkkkkkkkkkkkkkkkkkkkkkkkkkkkkkkkkkkkkkkkkkkkkkkkkkkkkkkkkkkkkkkkkkkkkkkkkkkkkkk
(PID.TID 0000.0001) //     86 kkkkkkkkkkkkkkkkkkkkkkkkkkkkkkkkkkkkkkkkkkkkkkkkkkkkkkkkkkkkkkkkkkkkkkkkkkkkkkkkkkkkkkkkkkkkkkkkkkkkkkkkkkkkkkkkkkkkkkkkkkkkkkkkkkkkkkkkkkkkkkkkkkkkkkkkkkkkkkkkkkkkkkkkkkkkkkkkkkkkkkkkkkkkkkkkkkkkkkkkkkkkkkkkkkkkkkkkkkkkkkkkkkkkkkkkkkkkkkkkkkkkkkkkkkkkkkkkkkkkkkkkkkkkkkkkkkkkkkkkkkkkkkkkkkkkkkkkkkkkkkkkkkkkkkkkkkkkkkkkkkkkkkkkkk
(PID.TID 0000.0001) //     85 kkkkkkkkkkkkkkkkkkkkkkkkkkkkkkkkkkkkkkkkkkkkkkkkkkkkkkkkkkkkkkkkkkkkkkkkkkkkkkkkkkkkkkkkkkkkkkkkkkkkkkkkkkkkkkkkkkkkkkkkkkkkkkkkkkkkkkkkkkkkkkkkkkkkkkkkkkkkkkkkkkkkkkkkkkkkkkkkkkkkkkkkkkkkkkkkkkkkkkkkkkkkkkkkkkkkkkkkkkkkkkkkkkkkkkkkkkkkkkkkkkkkkkkkkkkkkkkkkkkkkkkkkkkkkkkkkkkkkkkkkkkkkkkkkkkkkkkkkkkkkkkkkkkkkkkkkkkkkkkkkkkkkkkkkk
(PID.TID 0000.0001) //     84 kkkkkkkkkkkkkkkkkkkkkkkkkkkkkkkkkkkkkkkkkkkkkkkkkkkkkkkkkkkkkkkkkkkkkkkkkkkkkkkkkkkkkkkkkkkkkkkkkkkkkkkkkkkkkkkkkkkkkkkkkkkkkkkkkkkkkkkkkkkkkkkkkkkkkkkkkkkkkkkkkkkkkkkkkkkkkkkkkkkkkkkkkkkkkkkkkkkkkkkkkkkkkkkkkkkkkkkkkkkkkkkkkkkkkkkkkkkkkkkkkkkkkkkkkkkkkkkkkkkkkkkkkkkkkkkkkkkkkkkkkkkkkkkkkkkkkkkkkkkkkkkkkkkkkkkkkkkkkkkkkkkkkkkkkk
(PID.TID 0000.0001) //     83 iiiiiiiiiiiiiiiiiiiiiiiiiiiiiiiiiiiiiiiiiiiiiiiiiiiiiiiiiiiiiiiiiiiiiiiiiiiiiiiiiiiiiiiiiiiiiiiiiiiiiiiiiiiiiiiiiiiiiiiiiiiiiiiiiiiiiiiiiiiiiiiiiiiiiiiiiiiiiiiiiiiiiiiiiiiiiiiiiiiiiiiiiiiiiiiiiiiiiiiiiiiiiiiiiiiiiiiiiiiiiiiiiiiiiiiiiiiiiiiiiiiiiiiiiiiiiiiiiiiiiiiiiiiiiiiiiiiiiiiiiiiiiiiiiiiiiiiiiiiiiiiiiiiiiiiiiiiiiiiiiiiiiiiiii
(PID.TID 0000.0001) //     82 iiiiiiiiiiiiiiiiiiiiiiiiiiiiiiiiiiiiiiiiiiiiiiiiiiiiiiiiiiiiiiiiiiiiiiiiiiiiiiiiiiiiiiiiiiiiiiiiiiiiiiiiiiiiiiiiiiiiiiiiiiiiiiiiiiiiiiiiiiiiiiiiiiiiiiiiiiiiiiiiiiiiiiiiiiiiiiiiiiiiiiiiiiiiiiiiiiiiiiiiiiiiiiiiiiiiiiiiiiiiiiiiiiiiiiiiiiiiiiiiiiiiiiiiiiiiiiiiiiiiiiiiiiiiiiiiiiiiiiiiiiiiiiiiiiiiiiiiiiiiiiiiiiiiiiiiiiiiiiiiiiiiiiiiii
(PID.TID 0000.0001) //     87 kkkkkkkkkkkkkkkkkkkkkkkkkkkkkkkkkkkkkkkkkkkkkkkkkkkkkkkkkkkkkkkkkkkkkkkkkkkkkkkkkkkkkkkkkkkkkkkkkkkkkkkkkkkkkkkkkkkkkkkkkkkkkkkkkkkkkkkkkkkkkkkkkkkkkkkkkkkkkkkkkkkkkkkkkkkkkkkkkkkkkkkkkkkkkkkkkkkkkkkkkkkkkkkkkkkkkkkkkkkkkkkkkkkkkkkkkkkkkkkkkkkkkkkkkkkkkkkkkkkkkkkkkkkkkkkkkkkkkkkkkkkkkkkkkkkkkkkkkkkkkkkkkkkkkkkkkkkkkkkkkkkkkkkkkk
(PID.TID 0000.0001) //     86 kkkkkkkkkkkkkkkkkkkkkkkkkkkkkkkkkkkkkkkkkkkkkkkkkkkkkkkkkkkkkkkkkkkkkkkkkkkkkkkkkkkkkkkkkkkkkkkkkkkkkkkkkkkkkkkkkkkkkkkkkkkkkkkkkkkkkkkkkkkkkkkkkkkkkkkkkkkkkkkkkkkkkkkkkkkkkkkkkkkkkkkkkkkkkkkkkkkkkkkkkkkkkkkkkkkkkkkkkkkkkkkkkkkkkkkkkkkkkkkkkkkkkkkkkkkkkkkkkkkkkkkkkkkkkkkkkkkkkkkkkkkkkkkkkkkkkkkkkkkkkkkkkkkkkkkkkkkkkkkkkkkkkkkkkk
(PID.TID 0000.0001) //     85 kkkkkkkkkkkkkkkkkkkkkkkkkkkkkkkkkkkkkkkkkkkkkkkkkkkkkkkkkkkkkkkkkkkkkkkkkkkkkkkkkkkkkkkkkkkkkkkkkkkkkkkkkkkkkkkkkkkkkkkkkkkkkkkkkkkkkkkkkkkkkkkkkkkkkkkkkkkkkkkkkkkkkkkkkkkkkkkkkkkkkkkkkkkkkkkkkkkkkkkkkkkkkkkkkkkkkkkkkkkkkkkkkkkkkkkkkkkkkkkkkkkkkkkkkkkkkkkkkkkkkkkkkkkkkkkkkkkkkkkkkkkkkkkkkkkkkkkkkkkkkkkkkkkkkkkkkkkkkkkkkkkkkkkkkk
(PID.TID 0000.0001) //     84 kkkkkkkkkkkkkkkkkkkkkkkkkkkkkkkkkkkkkkkkkkkkkkkkkkkkkkkkkkkkkkkkkkkkkkkkkkkkkkkkkkkkkkkkkkkkkkkkkkkkkkkkkkkkkkkkkkkkkkkkkkkkkkkkkkkkkkkkkkkkkkkkkkkkkkkkkkkkkkkkkkkkkkkkkkkkkkkkkkkkkkkkkkkkkkkkkkkkkkkkkkkkkkkkkkkkkkkkkkkkkkkkkkkkkkkkkkkkkkkkkkkkkkkkkkkkkkkkkkkkkkkkkkkkkkkkkkkkkkkkkkkkkkkkkkkkkkkkkkkkkkkkkkkkkkkkkkkkkkkkkkkkkkkkkk
(PID.TID 0000.0001) //     83 iiiiiiiiiiiiiiiiiiiiiiiiiiiiiiiiiiiiiiiiiiiiiiiiiiiiiiiiiiiiiiiiiiiiiiiiiiiiiiiiiiiiiiiiiiiiiiiiiiiiiiiiiiiiiiiiiiiiiiiiiiiiiiiiiiiiiiiiiiiiiiiiiiiiiiiiiiiiiiiiiiiiiiiiiiiiiiiiiiiiiiiiiiiiiiiiiiiiiiiiiiiiiiiiiiiiiiiiiiiiiiiiiiiiiiiiiiiiiiiiiiiiiiiiiiiiiiiiiiiiiiiiiiiiiiiiiiiiiiiiiiiiiiiiiiiiiiiiiiiiiiiiiiiiiiiiiiiiiiiiiiiiiiiiii
(PID.TID 0000.0001) //     82 iiiiiiiiiiiiiiiiiiiiiiiiiiiiiiiiiiiiiiiiiiiiiiiiiiiiiiiiiiiiiiiiiiiiiiiiiiiiiiiiiiiiiiiiiiiiiiiiiiiiiiiiiiiiiiiiiiiiiiiiiiiiiiiiiiiiiiiiiiiiiiiiiiiiiiiiiiiiiiiiiiiiiiiiiiiiiiiiiiiiiiiiiiiiiiiiiiiiiiiiiiiiiiiiiiiiiiiiiiiiiiiiiiiiiiiiiiiiiiiiiiiiiiiiiiiiiiiiiiiiiiiiiiiiiiiiiiiiiiiiiiiiiiiiiiiiiiiiiiiiiiiiiiiiiiiiiiiiiiiiiiiiiiiiii
(PID.TID 0000.0001) //     81 iiiiiiiiiiiiiiiiiiiiiiiiiiiiiiiiiiiiiiiiiiiiiiiiiiiiiiiiiiiiiiiiiiiiiiiiiiiiiiiiiiiiiiiiiiiiiiiiiiiiiiiiiiiiiiiiiiiiiiiiiiiiiiiiiiiiiiiiiiiiiiiiiiiiiiiiiiiiiiiiiiiiiiiiiiiiiiiiiiiiiiiiiiiiiiiiiiiiiiiiiiiiiiiiiiiiiiiiiiiiiiiiiiiiiiiiiiiiiiiiiiiiiiiiiiiiiiiiiiiiiiiiiiiiiiiiiiiiiiiiiiiiiiiiiiiiiiiiiiiiiiiiiiiiiiiiiiiiiiiiiiiiiiiiii
(PID.TID 0000.0001) //     80 iiiiiiiiiiiiiiiiiiiiiiiiiiiiiiiiiiiiiiiiiiiiiiiiiiiiiiiiiiiiiiiiiiiiiiiiiiiiiiiiiiiiiiiiiiiiiiiiiiiiiiiiiiiiiiiiiiiiiiiiiiiiiiiiiiiiiiiiiiiiiiiiiiiiiiiiiiiiiiiiiiiiiiiiiiiiiiiiiiiiiiiiiiiiiiiiiiiiiiiiiiiiiiiiiiiiiiiiiiiiiiiiiiiiiiiiiiiiiiiiiiiiiiiiiiiiiiiiiiiiiiiiiiiiiiiiiiiiiiiiiiiiiiiiiiiiiiiiiiiiiiiiiiiiiiiiiiiiiiiiiiiiiiiiii
(PID.TID 0000.0001) //     79 iiiiiiiiiiiiiiiiiiiiiiiiiiiiiiiiiiiiiiiiiiiiiiiiiiiiiiiiiiiiiiiiiiiiiiiiiiiiiiiiiiiiiiiiiiiiiiiiiiiiiiiiiiiiiiiiiiiiiiiiiiiiiiiiiiiiiiiiiiiiiiiiiiiiiiiiiiiiiiiiiiiiiiiiiiiiiiiiiiiiiiiiiiiiiiiiiiiiiiiiiiiiiiiiiiiiiiiiiiiiiiiiiiiiiiiiiiiiiiiiiiiiiiiiiiiiiiiiiiiiiiiiiiiiiiiiiiiiiiiiiiiiiiiiiiiiiiiiiiiiiiiiiiiiiiiiiiiiiiiiiiiiiiiiii
(PID.TID 0000.0001) //     78 iiiiiiiiiiiiiiiiiiiiiiiiiiiiiiiiiiiiiiiiiiiiiiiiiiiiiiiiiiiiiiiiiiiiiiiiiiiiiiiiiiiiiiiiiiiiiiiiiiiiiiiiiiiiiiiiiiiiiiiiiiiiiiiiiiiiiiiiiiiiiiiiiiiiiiiiiiiiiiiiiiiiiiiiiiiiiiiiiiiiiiiiiiiiiiiiiiiiiiiiiiiiiiiiiiiiiiiiiiiiiiiiiiiiiiiiiiiiiiiiiiiiiiiiiiiiiiiiiiiiiiiiiiiiiiiiiiiiiiiiiiiiiiiiiiiiiiiiiiiiiiiiiiiiiiiiiiiiiiiiiiiiiiiiii
(PID.TID 0000.0001) //     77 gggggggggggggggggggggggggggggggggggggggggggggggggggggggggggggggggggggggggggggggggggggggggggggggggggggggggggggggggggggggggggggggggggggggggggggggggggggggggggggggggggggggggggggggggggggggggggggggggggggggggggggggggggggggggggggggggggggggggggggggggggggggggggggggggggggggggggggggggggggggggggggggggggggggggggggggggggggggggggggggggggggggggg
(PID.TID 0000.0001) //     76 gggggggggggggggggggggggggggggggggggggggggggggggggggggggggggggggggggggggggggggggggggggggggggggggggggggggggggggggggggggggggggggggggggggggggggggggggggggggggggggggggggggggggggggggggggggggggggggggggggggggggggggggggggggggggggggggggggggggggggggggggggggggggggggggggggggggggggggggggggggggggggggggggggggggggggggggggggggggggggggggggggggggggg
(PID.TID 0000.0001) //     75 gggggggggggggggggggggggggggggggggggggggggggggggggggggggggggggggggggggggggggggggggggggggggggggggggggggggggggggggggggggggggggggggggggggggggggggggggggggggggggggggggggggggggggggggggggggggggggggggggggggggggggggggggggggggggggggggggggggggggggggggggggggggggggggggggggggggggggggggggggggggggggggggggggggggggggggggggggggggggggggggggggggggggg
(PID.TID 0000.0001) //     74 gggggggggggggggggggggggggggggggggggggggggggggggggggggggggggggggggggggggggggggggggggggggggggggggggggggggggggggggggggggggggggggggggggggggggggggggggggggggggggggggggggggggggggggggggggggggggggggggggggggggggggggggggggggggggggggggggggggggggggggggggggggggggggggggggggggggggggggggggggggggggggggggggggggggggggggggggggggggggggggggggggggggggg
(PID.TID 0000.0001) //     73 gggggggggggggggggggggggggggggggggggggggggggggggggggggggggggggggggggggggggggggggggggggggggggggggggggggggggggggggggggggggggggggggggggggggggggggggggggggggggggggggggggggggggggggggggggggggggggggggggggggggggggggggggggggggggggggggggggggggggggggggggggggggggggggggggggggggggggggggggggggggggggggggggggggggggggggggggggggggggggggggggggggggggg
(PID.TID 0000.0001) //     72 gggggggggggggggggggggggggggggggggggggggggggggggggggggggggggggggggggggggggggggggggggggggggggggggggggggggggggggggggggggggggggggggggggggggggggggggggggggggggggggggggggggggggggggggggggggggggggggggggggggggggggggggggggggggggggggggggggggggggggggggggggggggggggggggggggggggggggggggggggggggggggggggggggggggggggggggggggggggggggggggggggggggggg
(PID.TID 0000.0001) //     71 eeeeeeeeeeeeeeeeeeeeeeeeeeeeeeeeeeeeeeeeeeeeeeeeeeeeeeeeeeeeeeeeeeeeeeeeeeeeeeeeeeeeeeeeeeeeeeeeeeeeeeeeeeeeeeeeeeeeeeeeeeeeeeeeeeeeeeeeeeeeeeeeeeeeeeeeeeeeeeeeeeeeeeeeeeeeeeeeeeeeeeeeeeeeeeeeeeeeeeeeeeeeeeeeeeeeeeeeeeeeeeeeeeeeeeeeeeeeeeeeeeeeeeeeeeeeeeeeeeeeeeeeeeeeeeeeeeeeeeeeeeeeeeeeeeeeeeeeeeeeeeeeeeeeeeeeeeeeeeeeeeeeeeeeee
(PID.TID 0000.0001) //     70 eeeeeeeeeeeeeeeeeeeeeeeeeeeeeeeeeeeeeeeeeeeeeeeeeeeeeeeeeeeeeeeeeeeeeeeeeeeeeeeeeeeeeeeeeeeeeeeeeeeeeeeeeeeeeeeeeeeeeeeeeeeeeeeeeeeeeeeeeeeeeeeeeeeeeeeeeeeeeeeeeeeeeeeeeeeeeeeeeeeeeeeeeeeeeeeeeeeeeeeeeeeeeeeeeeeeeeeeeeeeeeeeeeeeeeeeeeeeeeeeeeeeeeeeeeeeeeeeeeeeeeeeeeeeeeeeeeeeeeeeeeeeeeeeeeeeeeeeeeeeeeeeeeeeeeeeeeeeeeeeeeeeeeeeee
(PID.TID 0000.0001) //     75 gggggggggggggggggggggggggggggggggggggggggggggggggggggggggggggggggggggggggggggggggggggggggggggggggggggggggggggggggggggggggggggggggggggggggggggggggggggggggggggggggggggggggggggggggggggggggggggggggggggggggggggggggggggggggggggggggggggggggggggggggggggggggggggggggggggggggggggggggggggggggggggggggggggggggggggggggggggggggggggggggggggggggg
(PID.TID 0000.0001) //     74 gggggggggggggggggggggggggggggggggggggggggggggggggggggggggggggggggggggggggggggggggggggggggggggggggggggggggggggggggggggggggggggggggggggggggggggggggggggggggggggggggggggggggggggggggggggggggggggggggggggggggggggggggggggggggggggggggggggggggggggggggggggggggggggggggggggggggggggggggggggggggggggggggggggggggggggggggggggggggggggggggggggggggg
(PID.TID 0000.0001) //     73 gggggggggggggggggggggggggggggggggggggggggggggggggggggggggggggggggggggggggggggggggggggggggggggggggggggggggggggggggggggggggggggggggggggggggggggggggggggggggggggggggggggggggggggggggggggggggggggggggggggggggggggggggggggggggggggggggggggggggggggggggggggggggggggggggggggggggggggggggggggggggggggggggggggggggggggggggggggggggggggggggggggggggg
(PID.TID 0000.0001) //     72 gggggggggggggggggggggggggggggggggggggggggggggggggggggggggggggggggggggggggggggggggggggggggggggggggggggggggggggggggggggggggggggggggggggggggggggggggggggggggggggggggggggggggggggggggggggggggggggggggggggggggggggggggggggggggggggggggggggggggggggggggggggggggggggggggggggggggggggggggggggggggggggggggggggggggggggggggggggggggggggggggggggggggg
(PID.TID 0000.0001) //     71 eeeeeeeeeeeeeeeeeeeeeeeeeeeeeeeeeeeeeeeeeeeeeeeeeeeeeeeeeeeeeeeeeeeeeeeeeeeeeeeeeeeeeeeeeeeeeeeeeeeeeeeeeeeeeeeeeeeeeeeeeeeeeeeeeeeeeeeeeeeeeeeeeeeeeeeeeeeeeeeeeeeeeeeeeeeeeeeeeeeeeeeeeeeeeeeeeeeeeeeeeeeeeeeeeeeeeeeeeeeeeeeeeeeeeeeeeeeeeeeeeeeeeeeeeeeeeeeeeeeeeeeeeeeeeeeeeeeeeeeeeeeeeeeeeeeeeeeeeeeeeeeeeeeeeeeeeeeeeeeeeeeeeeeeee
(PID.TID 0000.0001) //     70 eeeeeeeeeeeeeeeeeeeeeeeeeeeeeeeeeeeeeeeeeeeeeeeeeeeeeeeeeeeeeeeeeeeeeeeeeeeeeeeeeeeeeeeeeeeeeeeeeeeeeeeeeeeeeeeeeeeeeeeeeeeeeeeeeeeeeeeeeeeeeeeeeeeeeeeeeeeeeeeeeeeeeeeeeeeeeeeeeeeeeeeeeeeeeeeeeeeeeeeeeeeeeeeeeeeeeeeeeeeeeeeeeeeeeeeeeeeeeeeeeeeeeeeeeeeeeeeeeeeeeeeeeeeeeeeeeeeeeeeeeeeeeeeeeeeeeeeeeeeeeeeeeeeeeeeeeeeeeeeeeeeeeeeeee
(PID.TID 0000.0001) //     69 eeeeeeeeeeeeeeeeeeeeeeeeeeeeeeeeeeeeeeeeeeeeeeeeeeeeeeeeeeeeeeeeeeeeeeeeeeeeeeeeeeeeeeeeeeeeeeeeeeeeeeeeeeeeeeeeeeeeeeeeeeeeeeeeeeeeeeeeeeeeeeeeeeeeeeeeeeeeeeeeeeeeeeeeeeeeeeeeeeeeeeeeeeeeeeeeeeeeeeeeeeeeeeeeeeeeeeeeeeeeeeeeeeeeeeeeeeeeeeeeeeeeeeeeeeeeeeeeeeeeeeeeeeeeeeeeeeeeeeeeeeeeeeeeeeeeeeeeeeeeeeeeeeeeeeeeeeeeeeeeeeeeeeeeee
(PID.TID 0000.0001) //     68 eeeeeeeeeeeeeeeeeeeeeeeeeeeeeeeeeeeeeeeeeeeeeeeeeeeeeeeeeeeeeeeeeeeeeeeeeeeeeeeeeeeeeeeeeeeeeeeeeeeeeeeeeeeeeeeeeeeeeeeeeeeeeeeeeeeeeeeeeeeeeeeeeeeeeeeeeeeeeeeeeeeeeeeeeeeeeeeeeeeeeeeeeeeeeeeeeeeeeeeeeeeeeeeeeeeeeeeeeeeeeeeeeeeeeeeeeeeeeeeeeeeeeeeeeeeeeeeeeeeeeeeeeeeeeeeeeeeeeeeeeeeeeeeeeeeeeeeeeeeeeeeeeeeeeeeeeeeeeeeeeeeeeeeeee
(PID.TID 0000.0001) //     67 eeeeeeeeeeeeeeeeeeeeeeeeeeeeeeeeeeeeeeeeeeeeeeeeeeeeeeeeeeeeeeeeeeeeeeeeeeeeeeeeeeeeeeeeeeeeeeeeeeeeeeeeeeeeeeeeeeeeeeeeeeeeeeeeeeeeeeeeeeeeeeeeeeeeeeeeeeeeeeeeeeeeeeeeeeeeeeeeeeeeeeeeeeeeeeeeeeeeeeeeeeeeeeeeeeeeeeeeeeeeeeeeeeeeeeeeeeeeeeeeeeeeeeeeeeeeeeeeeeeeeeeeeeeeeeeeeeeeeeeeeeeeeeeeeeeeeeeeeeeeeeeeeeeeeeeeeeeeeeeeeeeeeeeeee
(PID.TID 0000.0001) //     66 eeeeeeeeeeeeeeeeeeeeeeeeeeeeeeeeeeeeeeeeeeeeeeeeeeeeeeeeeeeeeeeeeeeeeeeeeeeeeeeeeeeeeeeeeeeeeeeeeeeeeeeeeeeeeeeeeeeeeeeeeeeeeeeeeeeeeeeeeeeeeeeeeeeeeeeeeeeeeeeeeeeeeeeeeeeeeeeeeeeeeeeeeeeeeeeeeeeeeeeeeeeeeeeeeeeeeeeeeeeeeeeeeeeeeeeeeeeeeeeeeeeeeeeeeeeeeeeeeeeeeeeeeeeeeeeeeeeeeeeeeeeeeeeeeeeeeeeeeeeeeeeeeeeeeeeeeeeeeeeeeeeeeeeeee
(PID.TID 0000.0001) //     65 eeeeeeeeeeeeeeeeeeeeeeeeeeeeeeeeeeeeeeeeeeeeeeeeeeeeeeeeeeeeeeeeeeeeeeeeeeeeeeeeeeeeeeeeeeeeeeeeeeeeeeeeeeeeeeeeeeeeeeeeeeeeeeeeeeeeeeeeeeeeeeeeeeeeeeeeeeeeeeeeeeeeeeeeeeeeeeeeeeeeeeeeeeeeeeeeeeeeeeeeeeeeeeeeeeeeeeeeeeeeeeeeeeeeeeeeeeeeeeeeeeeeeeeeeeeeeeeeeeeeeeeeeeeeeeeeeeeeeeeeeeeeeeeeeeeeeeeeeeeeeeeeeeeeeeeeeeeeeeeeeeeeeeeeee
(PID.TID 0000.0001) //     64 cccccccccccccccccccccccccccccccccccccccccccccccccccccccccccccccccccccccccccccccccccccccccccccccccccccccccccccccccccccccccccccccccccccccccccccccccccccccccccccccccccccccccccccccccccccccccccccccccccccccccccccccccccccccccccccccccccccccccccccccccccccccccccccccccccccccccccccccccccccccccccccccccccccccccccccccccccccccccccccccccccccccccc
(PID.TID 0000.0001) //     63 cccccccccccccccccccccccccccccccccccccccccccccccccccccccccccccccccccccccccccccccccccccccccccccccccccccccccccccccccccccccccccccccccccccccccccccccccccccccccccccccccccccccccccccccccccccccccccccccccccccccccccccccccccccccccccccccccccccccccccccccccccccccccccccccccccccccccccccccccccccccccccccccccccccccccccccccccccccccccccccccccccccccccc
(PID.TID 0000.0001) //     62 cccccccccccccccccccccccccccccccccccccccccccccccccccccccccccccccccccccccccccccccccccccccccccccccccccccccccccccccccccccccccccccccccccccccccccccccccccccccccccccccccccccccccccccccccccccccccccccccccccccccccccccccccccccccccccccccccccccccccccccccccccccccccccccccccccccccccccccccccccccccccccccccccccccccccccccccccccccccccccccccccccccccccc
(PID.TID 0000.0001) //     61 cccccccccccccccccccccccccccccccccccccccccccccccccccccccccccccccccccccccccccccccccccccccccccccccccccccccccccccccccccccccccccccccccccccccccccccccccccccccccccccccccccccccccccccccccccccccccccccccccccccccccccccccccccccccccccccccccccccccccccccccccccccccccccccccccccccccccccccccccccccccccccccccccccccccccccccccccccccccccccccccccccccccccc
(PID.TID 0000.0001) //     60 cccccccccccccccccccccccccccccccccccccccccccccccccccccccccccccccccccccccccccccccccccccccccccccccccccccccccccccccccccccccccccccccccccccccccccccccccccccccccccccccccccccccccccccccccccccccccccccccccccccccccccccccccccccccccccccccccccccccccccccccccccccccccccccccccccccccccccccccccccccccccccccccccccccccccccccccccccccccccccccccccccccccccc
(PID.TID 0000.0001) //     59 cccccccccccccccccccccccccccccccccccccccccccccccccccccccccccccccccccccccccccccccccccccccccccccccccccccccccccccccccccccccccccccccccccccccccccccccccccccccccccccccccccccccccccccccccccccccccccccccccccccccccccccccccccccccccccccccccccccccccccccccccccccccccccccccccccccccccccccccccccccccccccccccccccccccccccccccccccccccccccccccccccccccccc
(PID.TID 0000.0001) //     58 cccccccccccccccccccccccccccccccccccccccccccccccccccccccccccccccccccccccccccccccccccccccccccccccccccccccccccccccccccccccccccccccccccccccccccccccccccccccccccccccccccccccccccccccccccccccccccccccccccccccccccccccccccccccccccccccccccccccccccccccccccccccccccccccccccccccccccccccccccccccccccccccccccccccccccccccccccccccccccccccccccccccccc
(PID.TID 0000.0001) //     63 cccccccccccccccccccccccccccccccccccccccccccccccccccccccccccccccccccccccccccccccccccccccccccccccccccccccccccccccccccccccccccccccccccccccccccccccccccccccccccccccccccccccccccccccccccccccccccccccccccccccccccccccccccccccccccccccccccccccccccccccccccccccccccccccccccccccccccccccccccccccccccccccccccccccccccccccccccccccccccccccccccccccccc
(PID.TID 0000.0001) //     62 cccccccccccccccccccccccccccccccccccccccccccccccccccccccccccccccccccccccccccccccccccccccccccccccccccccccccccccccccccccccccccccccccccccccccccccccccccccccccccccccccccccccccccccccccccccccccccccccccccccccccccccccccccccccccccccccccccccccccccccccccccccccccccccccccccccccccccccccccccccccccccccccccccccccccccccccccccccccccccccccccccccccccc
(PID.TID 0000.0001) //     61 cccccccccccccccccccccccccccccccccccccccccccccccccccccccccccccccccccccccccccccccccccccccccccccccccccccccccccccccccccccccccccccccccccccccccccccccccccccccccccccccccccccccccccccccccccccccccccccccccccccccccccccccccccccccccccccccccccccccccccccccccccccccccccccccccccccccccccccccccccccccccccccccccccccccccccccccccccccccccccccccccccccccccc
(PID.TID 0000.0001) //     60 cccccccccccccccccccccccccccccccccccccccccccccccccccccccccccccccccccccccccccccccccccccccccccccccccccccccccccccccccccccccccccccccccccccccccccccccccccccccccccccccccccccccccccccccccccccccccccccccccccccccccccccccccccccccccccccccccccccccccccccccccccccccccccccccccccccccccccccccccccccccccccccccccccccccccccccccccccccccccccccccccccccccccc
(PID.TID 0000.0001) //     59 cccccccccccccccccccccccccccccccccccccccccccccccccccccccccccccccccccccccccccccccccccccccccccccccccccccccccccccccccccccccccccccccccccccccccccccccccccccccccccccccccccccccccccccccccccccccccccccccccccccccccccccccccccccccccccccccccccccccccccccccccccccccccccccccccccccccccccccccccccccccccccccccccccccccccccccccccccccccccccccccccccccccccc
(PID.TID 0000.0001) //     58 cccccccccccccccccccccccccccccccccccccccccccccccccccccccccccccccccccccccccccccccccccccccccccccccccccccccccccccccccccccccccccccccccccccccccccccccccccccccccccccccccccccccccccccccccccccccccccccccccccccccccccccccccccccccccccccccccccccccccccccccccccccccccccccccccccccccccccccccccccccccccccccccccccccccccccccccccccccccccccccccccccccccccc
(PID.TID 0000.0001) //     57 ------------------------------------------------------------------------------------------------------------------------------------------------------------------------------------------------------------------------------------------------------------------------------------------------------------------------------------------
(PID.TID 0000.0001) //     56 ------------------------------------------------------------------------------------------------------------------------------------------------------------------------------------------------------------------------------------------------------------------------------------------------------------------------------------------
(PID.TID 0000.0001) //     55 ------------------------------------------------------------------------------------------------------------------------------------------------------------------------------------------------------------------------------------------------------------------------------------------------------------------------------------------
(PID.TID 0000.0001) //     54 ------------------------------------------------------------------------------------------------------------------------------------------------------------------------------------------------------------------------------------------------------------------------------------------------------------------------------------------
(PID.TID 0000.0001) //     53 ------------------------------------------------------------------------------------------------------------------------------------------------------------------------------------------------------------------------------------------------------------------------------------------------------------------------------------------
(PID.TID 0000.0001) //     52 ------------------------------------------------------------------------------------------------------------------------------------------------------------------------------------------------------------------------------------------------------------------------------------------------------------------------------------------
(PID.TID 0000.0001) //     51 ------------------------------------------------------------------------------------------------------------------------------------------------------------------------------------------------------------------------------------------------------------------------------------------------------------------------------------------
(PID.TID 0000.0001) //     50 ------------------------------------------------------------------------------------------------------------------------------------------------------------------------------------------------------------------------------------------------------------------------------------------------------------------------------------------
(PID.TID 0000.0001) //     49 ------------------------------------------------------------------------------------------------------------------------------------------------------------------------------------------------------------------------------------------------------------------------------------------------------------------------------------------
(PID.TID 0000.0001) //     48 ------------------------------------------------------------------------------------------------------------------------------------------------------------------------------------------------------------------------------------------------------------------------------------------------------------------------------------------
(PID.TID 0000.0001) //     47 ------------------------------------------------------------------------------------------------------------------------------------------------------------------------------------------------------------------------------------------------------------------------------------------------------------------------------------------
(PID.TID 0000.0001) //     46 ------------------------------------------------------------------------------------------------------------------------------------------------------------------------------------------------------------------------------------------------------------------------------------------------------------------------------------------
(PID.TID 0000.0001) //     51 ------------------------------------------------------------------------------------------------------------------------------------------------------------------------------------------------------------------------------------------------------------------------------------------------------------------------------------------
(PID.TID 0000.0001) //     50 ------------------------------------------------------------------------------------------------------------------------------------------------------------------------------------------------------------------------------------------------------------------------------------------------------------------------------------------
(PID.TID 0000.0001) //     49 ------------------------------------------------------------------------------------------------------------------------------------------------------------------------------------------------------------------------------------------------------------------------------------------------------------------------------------------
(PID.TID 0000.0001) //     48 ------------------------------------------------------------------------------------------------------------------------------------------------------------------------------------------------------------------------------------------------------------------------------------------------------------------------------------------
(PID.TID 0000.0001) //     47 ------------------------------------------------------------------------------------------------------------------------------------------------------------------------------------------------------------------------------------------------------------------------------------------------------------------------------------------
(PID.TID 0000.0001) //     46 ------------------------------------------------------------------------------------------------------------------------------------------------------------------------------------------------------------------------------------------------------------------------------------------------------------------------------------------
(PID.TID 0000.0001) //     45 ------------------------------------------------------------------------------------------------------------------------------------------------------------------------------------------------------------------------------------------------------------------------------------------------------------------------------------------
(PID.TID 0000.0001) //     44 ------------------------------------------------------------------------------------------------------------------------------------------------------------------------------------------------------------------------------------------------------------------------------------------------------------------------------------------
(PID.TID 0000.0001) //     43 ------------------------------------------------------------------------------------------------------------------------------------------------------------------------------------------------------------------------------------------------------------------------------------------------------------------------------------------
(PID.TID 0000.0001) //     42 ------------------------------------------------------------------------------------------------------------------------------------------------------------------------------------------------------------------------------------------------------------------------------------------------------------------------------------------
(PID.TID 0000.0001) //     41 ------------------------------------------------------------------------------------------------------------------------------------------------------------------------------------------------------------------------------------------------------------------------------------------------------------------------------------------
(PID.TID 0000.0001) //     40 ------------------------------------------------------------------------------------------------------------------------------------------------------------------------------------------------------------------------------------------------------------------------------------------------------------------------------------------
(PID.TID 0000.0001) //     39 ------------------------------------------------------------------------------------------------------------------------------------------------------------------------------------------------------------------------------------------------------------------------------------------------------------------------------------------
(PID.TID 0000.0001) //     38 ------------------------------------------------------------------------------------------------------------------------------------------------------------------------------------------------------------------------------------------------------------------------------------------------------------------------------------------
(PID.TID 0000.0001) //     37 ------------------------------------------------------------------------------------------------------------------------------------------------------------------------------------------------------------------------------------------------------------------------------------------------------------------------------------------
(PID.TID 0000.0001) //     36 ------------------------------------------------------------------------------------------------------------------------------------------------------------------------------------------------------------------------------------------------------------------------------------------------------------------------------------------
(PID.TID 0000.0001) //     35 ------------------------------------------------------------------------------------------------------------------------------------------------------------------------------------------------------------------------------------------------------------------------------------------------------------------------------------------
(PID.TID 0000.0001) //     34 ------------------------------------------------------------------------------------------------------------------------------------------------------------------------------------------------------------------------------------------------------------------------------------------------------------------------------------------
(PID.TID 0000.0001) //     39 ------------------------------------------------------------------------------------------------------------------------------------------------------------------------------------------------------------------------------------------------------------------------------------------------------------------------------------------
(PID.TID 0000.0001) //     38 ------------------------------------------------------------------------------------------------------------------------------------------------------------------------------------------------------------------------------------------------------------------------------------------------------------------------------------------
(PID.TID 0000.0001) //     37 ------------------------------------------------------------------------------------------------------------------------------------------------------------------------------------------------------------------------------------------------------------------------------------------------------------------------------------------
(PID.TID 0000.0001) //     36 ------------------------------------------------------------------------------------------------------------------------------------------------------------------------------------------------------------------------------------------------------------------------------------------------------------------------------------------
(PID.TID 0000.0001) //     35 ------------------------------------------------------------------------------------------------------------------------------------------------------------------------------------------------------------------------------------------------------------------------------------------------------------------------------------------
(PID.TID 0000.0001) //     34 ------------------------------------------------------------------------------------------------------------------------------------------------------------------------------------------------------------------------------------------------------------------------------------------------------------------------------------------
(PID.TID 0000.0001) //     33 ------------------------------------------------------------------------------------------------------------------------------------------------------------------------------------------------------------------------------------------------------------------------------------------------------------------------------------------
(PID.TID 0000.0001) //     32 ------------------------------------------------------------------------------------------------------------------------------------------------------------------------------------------------------------------------------------------------------------------------------------------------------------------------------------------
(PID.TID 0000.0001) //     31 ------------------------------------------------------------------------------------------------------------------------------------------------------------------------------------------------------------------------------------------------------------------------------------------------------------------------------------------
(PID.TID 0000.0001) //     30 ------------------------------------------------------------------------------------------------------------------------------------------------------------------------------------------------------------------------------------------------------------------------------------------------------------------------------------------
(PID.TID 0000.0001) //     29 ------------------------------------------------------------------------------------------------------------------------------------------------------------------------------------------------------------------------------------------------------------------------------------------------------------------------------------------
(PID.TID 0000.0001) //     28 ------------------------------------------------------------------------------------------------------------------------------------------------------------------------------------------------------------------------------------------------------------------------------------------------------------------------------------------
(PID.TID 0000.0001) //     27 ------------------------------------------------------------------------------------------------------------------------------------------------------------------------------------------------------------------------------------------------------------------------------------------------------------------------------------------
(PID.TID 0000.0001) //     26 ------------------------------------------------------------------------------------------------------------------------------------------------------------------------------------------------------------------------------------------------------------------------------------------------------------------------------------------
(PID.TID 0000.0001) //     25 ------------------------------------------------------------------------------------------------------------------------------------------------------------------------------------------------------------------------------------------------------------------------------------------------------------------------------------------
(PID.TID 0000.0001) //     24 ------------------------------------------------------------------------------------------------------------------------------------------------------------------------------------------------------------------------------------------------------------------------------------------------------------------------------------------
(PID.TID 0000.0001) //     23 ------------------------------------------------------------------------------------------------------------------------------------------------------------------------------------------------------------------------------------------------------------------------------------------------------------------------------------------
(PID.TID 0000.0001) //     22 ------------------------------------------------------------------------------------------------------------------------------------------------------------------------------------------------------------------------------------------------------------------------------------------------------------------------------------------
(PID.TID 0000.0001) //     27 ------------------------------------------------------------------------------------------------------------------------------------------------------------------------------------------------------------------------------------------------------------------------------------------------------------------------------------------
(PID.TID 0000.0001) //     26 ------------------------------------------------------------------------------------------------------------------------------------------------------------------------------------------------------------------------------------------------------------------------------------------------------------------------------------------
(PID.TID 0000.0001) //     25 ------------------------------------------------------------------------------------------------------------------------------------------------------------------------------------------------------------------------------------------------------------------------------------------------------------------------------------------
(PID.TID 0000.0001) //     24 ------------------------------------------------------------------------------------------------------------------------------------------------------------------------------------------------------------------------------------------------------------------------------------------------------------------------------------------
(PID.TID 0000.0001) //     23 ------------------------------------------------------------------------------------------------------------------------------------------------------------------------------------------------------------------------------------------------------------------------------------------------------------------------------------------
(PID.TID 0000.0001) //     22 ------------------------------------------------------------------------------------------------------------------------------------------------------------------------------------------------------------------------------------------------------------------------------------------------------------------------------------------
(PID.TID 0000.0001) //     21 ------------------------------------------------------------------------------------------------------------------------------------------------------------------------------------------------------------------------------------------------------------------------------------------------------------------------------------------
(PID.TID 0000.0001) //     20 ------------------------------------------------------------------------------------------------------------------------------------------------------------------------------------------------------------------------------------------------------------------------------------------------------------------------------------------
(PID.TID 0000.0001) //     19 ------------------------------------------------------------------------------------------------------------------------------------------------------------------------------------------------------------------------------------------------------------------------------------------------------------------------------------------
(PID.TID 0000.0001) //     18 ------------------------------------------------------------------------------------------------------------------------------------------------------------------------------------------------------------------------------------------------------------------------------------------------------------------------------------------
(PID.TID 0000.0001) //     17 ------------------------------------------------------------------------------------------------------------------------------------------------------------------------------------------------------------------------------------------------------------------------------------------------------------------------------------------
(PID.TID 0000.0001) //     16 ------------------------------------------------------------------------------------------------------------------------------------------------------------------------------------------------------------------------------------------------------------------------------------------------------------------------------------------
(PID.TID 0000.0001) //     15 ------------------------------------------------------------------------------------------------------------------------------------------------------------------------------------------------------------------------------------------------------------------------------------------------------------------------------------------
(PID.TID 0000.0001) //     14 ------------------------------------------------------------------------------------------------------------------------------------------------------------------------------------------------------------------------------------------------------------------------------------------------------------------------------------------
(PID.TID 0000.0001) //     13 ------------------------------------------------------------------------------------------------------------------------------------------------------------------------------------------------------------------------------------------------------------------------------------------------------------------------------------------
(PID.TID 0000.0001) //     12 ------------------------------------------------------------------------------------------------------------------------------------------------------------------------------------------------------------------------------------------------------------------------------------------------------------------------------------------
(PID.TID 0000.0001) //     11 ------------------------------------------------------------------------------------------------------------------------------------------------------------------------------------------------------------------------------------------------------------------------------------------------------------------------------------------
(PID.TID 0000.0001) //     10 ------------------------------------------------------------------------------------------------------------------------------------------------------------------------------------------------------------------------------------------------------------------------------------------------------------------------------------------
(PID.TID 0000.0001) //     15 ------------------------------------------------------------------------------------------------------------------------------------------------------------------------------------------------------------------------------------------------------------------------------------------------------------------------------------------
(PID.TID 0000.0001) //     14 ------------------------------------------------------------------------------------------------------------------------------------------------------------------------------------------------------------------------------------------------------------------------------------------------------------------------------------------
(PID.TID 0000.0001) //     13 ------------------------------------------------------------------------------------------------------------------------------------------------------------------------------------------------------------------------------------------------------------------------------------------------------------------------------------------
(PID.TID 0000.0001) //     12 ------------------------------------------------------------------------------------------------------------------------------------------------------------------------------------------------------------------------------------------------------------------------------------------------------------------------------------------
(PID.TID 0000.0001) //     11 ------------------------------------------------------------------------------------------------------------------------------------------------------------------------------------------------------------------------------------------------------------------------------------------------------------------------------------------
(PID.TID 0000.0001) //     10 ------------------------------------------------------------------------------------------------------------------------------------------------------------------------------------------------------------------------------------------------------------------------------------------------------------------------------------------
(PID.TID 0000.0001) //      9 ------------------------------------------------------------------------------------------------------------------------------------------------------------------------------------------------------------------------------------------------------------------------------------------------------------------------------------------
(PID.TID 0000.0001) //      8 ------------------------------------------------------------------------------------------------------------------------------------------------------------------------------------------------------------------------------------------------------------------------------------------------------------------------------------------
(PID.TID 0000.0001) //      7 ------------------------------------------------------------------------------------------------------------------------------------------------------------------------------------------------------------------------------------------------------------------------------------------------------------------------------------------
(PID.TID 0000.0001) //      6 ------------------------------------------------------------------------------------------------------------------------------------------------------------------------------------------------------------------------------------------------------------------------------------------------------------------------------------------
(PID.TID 0000.0001) //      5 ------------------------------------------------------------------------------------------------------------------------------------------------------------------------------------------------------------------------------------------------------------------------------------------------------------------------------------------
(PID.TID 0000.0001) //      4 ------------------------------------------------------------------------------------------------------------------------------------------------------------------------------------------------------------------------------------------------------------------------------------------------------------------------------------------
(PID.TID 0000.0001) //      3 ------------------------------------------------------------------------------------------------------------------------------------------------------------------------------------------------------------------------------------------------------------------------------------------------------------------------------------------
(PID.TID 0000.0001) //      2 ------------------------------------------------------------------------------------------------------------------------------------------------------------------------------------------------------------------------------------------------------------------------------------------------------------------------------------------
(PID.TID 0000.0001) //      1 ------------------------------------------------------------------------------------------------------------------------------------------------------------------------------------------------------------------------------------------------------------------------------------------------------------------------------------------
(PID.TID 0000.0001) //      0 ..........................................................................................................................................................................................................................................................................................................................................
(PID.TID 0000.0001) //     -1 .....................................................................................................................................................+++++.++++++++++++++++++++.+++++.....................................................................................................................................................
(PID.TID 0000.0001) //     -2 ................................................................................................................................................++++++++++++++++++++++++++++++++++++++++++................................................................................................................................................
(PID.TID 0000.0001) // =======================================================
(PID.TID 0000.0001) // END OF FIELD                                          =
(PID.TID 0000.0001) // =======================================================
(PID.TID 0000.0001) 
(PID.TID 0000.0001) // =======================================================
(PID.TID 0000.0001) // Field Model Ro_surf (ini_masks_etc)
(PID.TID 0000.0001) // CMIN =          1.000000000000000E+32
(PID.TID 0000.0001) // CMAX =         -1.000000000000000E+32
(PID.TID 0000.0001) // CINT =          0.000000000000000E+00
(PID.TID 0000.0001) // SYMBOLS (CMIN->CMAX): -abcdefghijklmnopqrstuvwxyz+
(PID.TID 0000.0001) //                  0.0: .
(PID.TID 0000.0001) // RANGE I (Lo:Hi:Step):(    -2:   243:     1)
(PID.TID 0000.0001) // RANGE J (Lo:Hi:Step):(   183:    -2:    -1)
(PID.TID 0000.0001) // RANGE K (Lo:Hi:Step):(   1:   1:   1)
(PID.TID 0000.0001) // =======================================================
(PID.TID 0000.0001) // =======================================================
(PID.TID 0000.0001) // END OF FIELD                                          =
(PID.TID 0000.0001) // =======================================================
(PID.TID 0000.0001) 
(PID.TID 0000.0001) // =======================================================
(PID.TID 0000.0001) // Field hFacC at iteration          0
(PID.TID 0000.0001) // CMIN =          1.000000000000000E+00
(PID.TID 0000.0001) // CMAX =          1.000000000000000E+00
(PID.TID 0000.0001) // CINT =          0.000000000000000E+00
(PID.TID 0000.0001) // SYMBOLS (CMIN->CMAX): -abcdefghijklmnopqrstuvwxyz+
(PID.TID 0000.0001) //                  0.0: .
(PID.TID 0000.0001) // RANGE I (Lo:Hi:Step):(    -2:   243:     1)
(PID.TID 0000.0001) // RANGE J (Lo:Hi:Step):(   183:    -2:    -1)
(PID.TID 0000.0001) // RANGE K (Lo:Hi:Step):(   1:   1:   1)
(PID.TID 0000.0001) // =======================================================
(PID.TID 0000.0001) // =======================================================
(PID.TID 0000.0001) // END OF FIELD                                          =
(PID.TID 0000.0001) // =======================================================
(PID.TID 0000.0001) 
(PID.TID 0000.0001) // =======================================================
(PID.TID 0000.0001) // Field hFacW at iteration          0
(PID.TID 0000.0001) // CMIN =          1.000000000000000E+00
(PID.TID 0000.0001) // CMAX =          1.000000000000000E+00
(PID.TID 0000.0001) // CINT =          0.000000000000000E+00
(PID.TID 0000.0001) // SYMBOLS (CMIN->CMAX): -abcdefghijklmnopqrstuvwxyz+
(PID.TID 0000.0001) //                  0.0: .
(PID.TID 0000.0001) // RANGE I (Lo:Hi:Step):(    -2:   243:     1)
(PID.TID 0000.0001) // RANGE J (Lo:Hi:Step):(   183:    -2:    -1)
(PID.TID 0000.0001) // RANGE K (Lo:Hi:Step):(   1:   1:   1)
(PID.TID 0000.0001) // =======================================================
(PID.TID 0000.0001) // =======================================================
(PID.TID 0000.0001) // END OF FIELD                                          =
(PID.TID 0000.0001) // =======================================================
(PID.TID 0000.0001) 
(PID.TID 0000.0001) // =======================================================
(PID.TID 0000.0001) // Field hFacS at iteration          0
(PID.TID 0000.0001) // CMIN =          1.000000000000000E+00
(PID.TID 0000.0001) // CMAX =          1.000000000000000E+00
(PID.TID 0000.0001) // CINT =          0.000000000000000E+00
(PID.TID 0000.0001) // SYMBOLS (CMIN->CMAX): -abcdefghijklmnopqrstuvwxyz+
(PID.TID 0000.0001) //                  0.0: .
(PID.TID 0000.0001) // RANGE I (Lo:Hi:Step):(    -2:   243:     1)
(PID.TID 0000.0001) // RANGE J (Lo:Hi:Step):(   183:    -2:    -1)
(PID.TID 0000.0001) // RANGE K (Lo:Hi:Step):(   1:   1:   1)
(PID.TID 0000.0001) // =======================================================
(PID.TID 0000.0001) // =======================================================
(PID.TID 0000.0001) // END OF FIELD                                          =
(PID.TID 0000.0001) // =======================================================
(PID.TID 0000.0001) 
(PID.TID 0000.0001) GAD_INIT_FIXED: GAD_OlMinSize=  1  0  1
(PID.TID 0000.0001) 
(PID.TID 0000.0001) // ===================================
(PID.TID 0000.0001) // GAD parameters :
(PID.TID 0000.0001) // ===================================
(PID.TID 0000.0001) tempAdvScheme =   /* Temp. Horiz.Advection scheme selector */
(PID.TID 0000.0001)                       2
(PID.TID 0000.0001)     ;
(PID.TID 0000.0001) tempVertAdvScheme =   /* Temp. Vert. Advection scheme selector */
(PID.TID 0000.0001)                       2
(PID.TID 0000.0001)     ;
(PID.TID 0000.0001) tempMultiDimAdvec =   /* use Muti-Dim Advec method for Temp */
(PID.TID 0000.0001)                   F
(PID.TID 0000.0001)     ;
(PID.TID 0000.0001) tempSOM_Advection = /* use 2nd Order Moment Advection for Temp */
(PID.TID 0000.0001)                   F
(PID.TID 0000.0001)     ;
(PID.TID 0000.0001) AdamsBashforthGt = /* apply Adams-Bashforth extrapolation on Gt */
(PID.TID 0000.0001)                   T
(PID.TID 0000.0001)     ;
(PID.TID 0000.0001) AdamsBashforth_T = /* apply Adams-Bashforth extrapolation on Temp */
(PID.TID 0000.0001)                   F
(PID.TID 0000.0001)     ;
(PID.TID 0000.0001) saltAdvScheme =   /* Salt. Horiz.advection scheme selector */
(PID.TID 0000.0001)                       2
(PID.TID 0000.0001)     ;
(PID.TID 0000.0001) saltVertAdvScheme =   /* Salt. Vert. Advection scheme selector */
(PID.TID 0000.0001)                       2
(PID.TID 0000.0001)     ;
(PID.TID 0000.0001) saltMultiDimAdvec =   /* use Muti-Dim Advec method for Salt */
(PID.TID 0000.0001)                   F
(PID.TID 0000.0001)     ;
(PID.TID 0000.0001) saltSOM_Advection = /* use 2nd Order Moment Advection for Salt */
(PID.TID 0000.0001)                   F
(PID.TID 0000.0001)     ;
(PID.TID 0000.0001) AdamsBashforthGs = /* apply Adams-Bashforth extrapolation on Gs */
(PID.TID 0000.0001)                   T
(PID.TID 0000.0001)     ;
(PID.TID 0000.0001) AdamsBashforth_S = /* apply Adams-Bashforth extrapolation on Salt */
(PID.TID 0000.0001)                   F
(PID.TID 0000.0001)     ;
(PID.TID 0000.0001) // ===================================
(PID.TID 0000.0001) Empty tile bi,bj=     1    11
(PID.TID 0000.0001) Empty tile bi,bj=     2    11
(PID.TID 0000.0001) Empty tile bi,bj=     3    11
(PID.TID 0000.0001) Empty tile bi,bj=    13    11
(PID.TID 0000.0001) Empty tile bi,bj=    14    11
(PID.TID 0000.0001) Empty tile bi,bj=    15    11
(PID.TID 0000.0001) Empty tile bi,bj=     1    12
(PID.TID 0000.0001) Empty tile bi,bj=     2    12
(PID.TID 0000.0001) Empty tile bi,bj=     3    12
(PID.TID 0000.0001) Empty tile bi,bj=    13    12
(PID.TID 0000.0001) Empty tile bi,bj=    14    12
(PID.TID 0000.0001) Empty tile bi,bj=    15    12
(PID.TID 0000.0001) Empty tile bi,bj=     1    13
(PID.TID 0000.0001) Empty tile bi,bj=     2    13
(PID.TID 0000.0001) Empty tile bi,bj=     3    13
(PID.TID 0000.0001) Empty tile bi,bj=     4    13
(PID.TID 0000.0001) Empty tile bi,bj=    12    13
(PID.TID 0000.0001) Empty tile bi,bj=    13    13
(PID.TID 0000.0001) Empty tile bi,bj=    14    13
(PID.TID 0000.0001) Empty tile bi,bj=    15    13
(PID.TID 0000.0001) Empty tile bi,bj=     1    14
(PID.TID 0000.0001) Empty tile bi,bj=     2    14
(PID.TID 0000.0001) Empty tile bi,bj=     3    14
(PID.TID 0000.0001) Empty tile bi,bj=     4    14
(PID.TID 0000.0001) Empty tile bi,bj=    12    14
(PID.TID 0000.0001) Empty tile bi,bj=    13    14
(PID.TID 0000.0001) Empty tile bi,bj=    14    14
(PID.TID 0000.0001) Empty tile bi,bj=    15    14
(PID.TID 0000.0001) Empty tile bi,bj=     1    15
(PID.TID 0000.0001) Empty tile bi,bj=     2    15
(PID.TID 0000.0001) Empty tile bi,bj=     3    15
(PID.TID 0000.0001) Empty tile bi,bj=     4    15
(PID.TID 0000.0001) Empty tile bi,bj=     5    15
(PID.TID 0000.0001) Empty tile bi,bj=    11    15
(PID.TID 0000.0001) Empty tile bi,bj=    12    15
(PID.TID 0000.0001) Empty tile bi,bj=    13    15
(PID.TID 0000.0001) Empty tile bi,bj=    14    15
(PID.TID 0000.0001) Empty tile bi,bj=    15    15
(PID.TID 0000.0001) 
(PID.TID 0000.0001) %MON fCori_max                    =   6.9758170400000E-04
(PID.TID 0000.0001) %MON fCori_min                    =   6.9339170400000E-04
(PID.TID 0000.0001) %MON fCori_mean                   =   6.9548670391111E-04
(PID.TID 0000.0001) %MON fCori_sd                     =   1.2162873101808E-06
(PID.TID 0000.0001) %MON fCoriG_max                   =   6.9757000000000E-04
(PID.TID 0000.0001) %MON fCoriG_min                   =   6.9338000000000E-04
(PID.TID 0000.0001) %MON fCoriG_mean                  =   6.9547500000000E-04
(PID.TID 0000.0001) %MON fCoriG_sd                    =   1.2162873093255E-06
(PID.TID 0000.0001) %MON fCoriCos_max                 =   0.0000000000000E+00
(PID.TID 0000.0001) %MON fCoriCos_min                 =   0.0000000000000E+00
(PID.TID 0000.0001) %MON fCoriCos_mean                =   0.0000000000000E+00
(PID.TID 0000.0001) %MON fCoriCos_sd                  =   0.0000000000000E+00
(PID.TID 0000.0001) INI_CG2D: CG2D normalisation factor =  8.5082023239917495E-04
(PID.TID 0000.0001) 
(PID.TID 0000.0001) // =======================================================
(PID.TID 0000.0001) // Model configuration
(PID.TID 0000.0001) // =======================================================
(PID.TID 0000.0001) //
(PID.TID 0000.0001) // "Physical" paramters ( PARM01 in namelist )
(PID.TID 0000.0001) //
(PID.TID 0000.0001) buoyancyRelation = /* Type of relation to get Buoyancy */
(PID.TID 0000.0001)               'OCEANIC'
(PID.TID 0000.0001)     ;
(PID.TID 0000.0001) fluidIsAir   =  /* fluid major constituent is Air */
(PID.TID 0000.0001)                   F
(PID.TID 0000.0001)     ;
(PID.TID 0000.0001) fluidIsWater =  /* fluid major constituent is Water */
(PID.TID 0000.0001)                   T
(PID.TID 0000.0001)     ;
(PID.TID 0000.0001) usingPCoords =  /* use p (or p*) vertical coordinate */
(PID.TID 0000.0001)                   F
(PID.TID 0000.0001)     ;
(PID.TID 0000.0001) usingZCoords =  /* use z (or z*) vertical coordinate */
(PID.TID 0000.0001)                   T
(PID.TID 0000.0001)     ;
(PID.TID 0000.0001) tRef =   /* Reference temperature profile ( oC or K ) */
(PID.TID 0000.0001)     3 @  1.660000000000000E+01,             /* K =  1:  3 */
(PID.TID 0000.0001)     7 @  1.650000000000000E+01,             /* K =  4: 10 */
(PID.TID 0000.0001)     2 @  1.640000000000000E+01,             /* K = 11: 12 */
(PID.TID 0000.0001)                 1.630000000000000E+01,      /* K = 13 */
(PID.TID 0000.0001)                 1.610000000000000E+01,      /* K = 14 */
(PID.TID 0000.0001)                 1.590000000000000E+01,      /* K = 15 */
(PID.TID 0000.0001)                 1.570000000000000E+01,      /* K = 16 */
(PID.TID 0000.0001)                 1.530000000000000E+01,      /* K = 17 */
(PID.TID 0000.0001)                 1.480000000000000E+01,      /* K = 18 */
(PID.TID 0000.0001)                 1.420000000000000E+01,      /* K = 19 */
(PID.TID 0000.0001)                 1.350000000000000E+01,      /* K = 20 */
(PID.TID 0000.0001)                 1.260000000000000E+01,      /* K = 21 */
(PID.TID 0000.0001)                 1.170000000000000E+01,      /* K = 22 */
(PID.TID 0000.0001)                 1.100000000000000E+01,      /* K = 23 */
(PID.TID 0000.0001)                 1.040000000000000E+01,      /* K = 24 */
(PID.TID 0000.0001)                 9.699999999999999E+00,      /* K = 25 */
(PID.TID 0000.0001)                 9.199999999999999E+00,      /* K = 26 */
(PID.TID 0000.0001)                 8.800000000000001E+00,      /* K = 27 */
(PID.TID 0000.0001)                 8.400000000000000E+00,      /* K = 28 */
(PID.TID 0000.0001)                 8.000000000000000E+00,      /* K = 29 */
(PID.TID 0000.0001)                 7.500000000000000E+00,      /* K = 30 */
(PID.TID 0000.0001)                 7.100000000000000E+00,      /* K = 31 */
(PID.TID 0000.0001)                 6.700000000000000E+00,      /* K = 32 */
(PID.TID 0000.0001)                 6.400000000000000E+00,      /* K = 33 */
(PID.TID 0000.0001)                 6.100000000000000E+00,      /* K = 34 */
(PID.TID 0000.0001)                 5.800000000000000E+00,      /* K = 35 */
(PID.TID 0000.0001)                 5.500000000000000E+00,      /* K = 36 */
(PID.TID 0000.0001)                 5.200000000000000E+00,      /* K = 37 */
(PID.TID 0000.0001)                 4.800000000000000E+00,      /* K = 38 */
(PID.TID 0000.0001)                 4.500000000000000E+00,      /* K = 39 */
(PID.TID 0000.0001)                 4.200000000000000E+00       /* K = 40 */
(PID.TID 0000.0001)     ;
(PID.TID 0000.0001) sRef =   /* Reference salinity profile ( g/kg ) */
(PID.TID 0000.0001)    17 @  3.360000000000000E+01,             /* K =  1: 17 */
(PID.TID 0000.0001)     3 @  3.370000000000000E+01,             /* K = 18: 20 */
(PID.TID 0000.0001)     3 @  3.380000000000000E+01,             /* K = 21: 23 */
(PID.TID 0000.0001)     2 @  3.390000000000000E+01,             /* K = 24: 25 */
(PID.TID 0000.0001)     2 @  3.400000000000000E+01,             /* K = 26: 27 */
(PID.TID 0000.0001)                 3.410000000000000E+01,      /* K = 28 */
(PID.TID 0000.0001)     4 @  3.420000000000000E+01,             /* K = 29: 32 */
(PID.TID 0000.0001)     3 @  3.430000000000000E+01,             /* K = 33: 35 */
(PID.TID 0000.0001)     4 @  3.440000000000000E+01,             /* K = 36: 39 */
(PID.TID 0000.0001)                 3.450000000000000E+01       /* K = 40 */
(PID.TID 0000.0001)     ;
(PID.TID 0000.0001) rhoRef =   /* Density vertical profile from (Ref,sRef)( kg/m^3 ) */
(PID.TID 0000.0001)     3 @  9.998000000000000E+02,             /* K =  1:  3 */
(PID.TID 0000.0001)     7 @  9.998199959999999E+02,             /* K =  4: 10 */
(PID.TID 0000.0001)     2 @  9.998399919999999E+02,             /* K = 11: 12 */
(PID.TID 0000.0001)                 9.998599879999999E+02,      /* K = 13 */
(PID.TID 0000.0001)                 9.998999799999999E+02,      /* K = 14 */
(PID.TID 0000.0001)                 9.999399720000000E+02,      /* K = 15 */
(PID.TID 0000.0001)                 9.999799640000000E+02,      /* K = 16 */
(PID.TID 0000.0001)                 1.000059948000000E+03,      /* K = 17 */
(PID.TID 0000.0001)                 1.000233913200000E+03,      /* K = 18 */
(PID.TID 0000.0001)                 1.000353889200000E+03,      /* K = 19 */
(PID.TID 0000.0001)                 1.000493861200000E+03,      /* K = 20 */
(PID.TID 0000.0001)                 1.000747810400000E+03,      /* K = 21 */
(PID.TID 0000.0001)                 1.000927774400000E+03,      /* K = 22 */
(PID.TID 0000.0001)                 1.001067746400000E+03,      /* K = 23 */
(PID.TID 0000.0001)                 1.001261707600000E+03,      /* K = 24 */
(PID.TID 0000.0001)                 1.001401679600000E+03,      /* K = 25 */
(PID.TID 0000.0001)                 1.001575644800000E+03,      /* K = 26 */
(PID.TID 0000.0001)                 1.001655628800000E+03,      /* K = 27 */
(PID.TID 0000.0001)                 1.001809598000000E+03,      /* K = 28 */
(PID.TID 0000.0001)                 1.001963567200000E+03,      /* K = 29 */
(PID.TID 0000.0001)                 1.002063547200000E+03,      /* K = 30 */
(PID.TID 0000.0001)                 1.002143531200000E+03,      /* K = 31 */
(PID.TID 0000.0001)                 1.002223515200000E+03,      /* K = 32 */
(PID.TID 0000.0001)                 1.002357488400000E+03,      /* K = 33 */
(PID.TID 0000.0001)                 1.002417476400000E+03,      /* K = 34 */
(PID.TID 0000.0001)                 1.002477464400000E+03,      /* K = 35 */
(PID.TID 0000.0001)                 1.002611437600000E+03,      /* K = 36 */
(PID.TID 0000.0001)                 1.002671425600000E+03,      /* K = 37 */
(PID.TID 0000.0001)                 1.002751409600000E+03,      /* K = 38 */
(PID.TID 0000.0001)                 1.002811397600000E+03,      /* K = 39 */
(PID.TID 0000.0001)                 1.002945370800000E+03       /* K = 40 */
(PID.TID 0000.0001)     ;
(PID.TID 0000.0001) dBdrRef = /* Vertical grad. of reference buoyancy [(m/s/r)^2] */
(PID.TID 0000.0001)     3 @  0.000000000000000E+00,             /* K =  1:  3 */
(PID.TID 0000.0001)                 7.694117647058936E-05,      /* K =  4 */
(PID.TID 0000.0001)     6 @  0.000000000000000E+00,             /* K =  5: 10 */
(PID.TID 0000.0001)                 3.809708737864132E-05,      /* K = 11 */
(PID.TID 0000.0001)                 0.000000000000000E+00,      /* K = 12 */
(PID.TID 0000.0001)                 3.114285714285648E-05,      /* K = 13 */
(PID.TID 0000.0001)                 5.646043165467606E-05,      /* K = 14 */
(PID.TID 0000.0001)                 5.129411764705909E-05,      /* K = 15 */
(PID.TID 0000.0001)                 4.643786982248546E-05,      /* K = 16 */
(PID.TID 0000.0001)                 8.393582887700505E-05,      /* K = 17 */
(PID.TID 0000.0001)                 1.657223300970884E-04,      /* K = 18 */
(PID.TID 0000.0001)                 1.032631578947371E-04,      /* K = 19 */
(PID.TID 0000.0001)                 1.089999999999999E-04,      /* K = 20 */
(PID.TID 0000.0001)                 1.792618705035942E-04,      /* K = 21 */
(PID.TID 0000.0001)                 1.150358306188925E-04,      /* K = 22 */
(PID.TID 0000.0001)                 8.102654867256628E-05,      /* K = 23 */
(PID.TID 0000.0001)                 1.015008000000005E-04,      /* K = 24 */
(PID.TID 0000.0001)                 6.634782608695662E-05,      /* K = 25 */
(PID.TID 0000.0001)                 7.470196936542715E-05,      /* K = 26 */
(PID.TID 0000.0001)                 3.108118811881178E-05,      /* K = 27 */
(PID.TID 0000.0001)                 5.414838709677459E-05,      /* K = 28 */
(PID.TID 0000.0001)                 4.905000000000037E-05,      /* K = 29 */
(PID.TID 0000.0001)                 2.885294117647059E-05,      /* K = 30 */
(PID.TID 0000.0001)                 2.090013315579230E-05,      /* K = 31 */
(PID.TID 0000.0001)                 1.891084337349396E-05,      /* K = 32 */
(PID.TID 0000.0001)                 2.867044711014086E-05,      /* K = 33 */
(PID.TID 0000.0001)                 1.163241106719370E-05,      /* K = 34 */
(PID.TID 0000.0001)                 1.052951699463327E-05,      /* K = 35 */
(PID.TID 0000.0001)                 2.128809716599207E-05,      /* K = 36 */
(PID.TID 0000.0001)                 8.630498533724336E-06,      /* K = 37 */
(PID.TID 0000.0001)                 1.041539482415396E-05,      /* K = 38 */
(PID.TID 0000.0001)                 7.083032490974726E-06,      /* K = 39 */
(PID.TID 0000.0001)                 1.433522355507099E-05       /* K = 40 */
(PID.TID 0000.0001)     ;
(PID.TID 0000.0001) useStrainTensionVisc= /* Use StrainTension Form of Viscous Operator */
(PID.TID 0000.0001)                   F
(PID.TID 0000.0001)     ;
(PID.TID 0000.0001) useVariableVisc = /* Use variable horizontal viscosity */
(PID.TID 0000.0001)                   F
(PID.TID 0000.0001)     ;
(PID.TID 0000.0001) useHarmonicVisc = /* Use harmonic horizontal viscosity */
(PID.TID 0000.0001)                   T
(PID.TID 0000.0001)     ;
(PID.TID 0000.0001) useBiharmonicVisc= /* Use biharmonic horiz.  viscosity */
(PID.TID 0000.0001)                   F
(PID.TID 0000.0001)     ;
(PID.TID 0000.0001) useSmag3D = /* Use isotropic 3-D Smagorinsky viscosity */
(PID.TID 0000.0001)                   F
(PID.TID 0000.0001)     ;
(PID.TID 0000.0001) viscAh  =   /* Lateral harmonic viscosity ( m^2/s ) */
(PID.TID 0000.0001)                 1.000000000000000E+02
(PID.TID 0000.0001)     ;
(PID.TID 0000.0001) viscA4  =   /* Lateral biharmonic viscosity ( m^4/s ) */
(PID.TID 0000.0001)                 0.000000000000000E+00
(PID.TID 0000.0001)     ;
(PID.TID 0000.0001) no_slip_sides =  /* Viscous BCs: No-slip sides */
(PID.TID 0000.0001)                   F
(PID.TID 0000.0001)     ;
(PID.TID 0000.0001) sideDragFactor = /* side-drag scaling factor (non-dim) */
(PID.TID 0000.0001)                 2.000000000000000E+00
(PID.TID 0000.0001)     ;
(PID.TID 0000.0001) viscArNr = /* vertical profile of vertical viscosity ( m^2/s )*/
(PID.TID 0000.0001)    40 @  1.000000000000000E-05              /* K =  1: 40 */
(PID.TID 0000.0001)     ;
(PID.TID 0000.0001) no_slip_bottom =  /* Viscous BCs: No-slip bottom */
(PID.TID 0000.0001)                   F
(PID.TID 0000.0001)     ;
(PID.TID 0000.0001) bottomVisc_pCell = /* Partial-cell in bottom Visc. BC */
(PID.TID 0000.0001)                   F
(PID.TID 0000.0001)     ;
(PID.TID 0000.0001) bottomDragLinear = /* linear bottom-drag coefficient ( m/s ) */
(PID.TID 0000.0001)                 0.000000000000000E+00
(PID.TID 0000.0001)     ;
(PID.TID 0000.0001) bottomDragQuadratic = /* quadratic bottom-drag coefficient (-) */
(PID.TID 0000.0001)                 0.000000000000000E+00
(PID.TID 0000.0001)     ;
(PID.TID 0000.0001) selectBotDragQuadr = /* select quadratic bottom drag options */
(PID.TID 0000.0001)                      -1
(PID.TID 0000.0001)     ;
(PID.TID 0000.0001) diffKhT =   /* Laplacian diffusion of heat laterally ( m^2/s ) */
(PID.TID 0000.0001)                 1.000000000000000E+02
(PID.TID 0000.0001)     ;
(PID.TID 0000.0001) diffK4T =   /* Biharmonic diffusion of heat laterally ( m^4/s ) */
(PID.TID 0000.0001)                 0.000000000000000E+00
(PID.TID 0000.0001)     ;
(PID.TID 0000.0001) diffKhS =   /* Laplacian diffusion of salt laterally ( m^2/s ) */
(PID.TID 0000.0001)                 1.000000000000000E+02
(PID.TID 0000.0001)     ;
(PID.TID 0000.0001) diffK4S =   /* Biharmonic diffusion of salt laterally ( m^4/s ) */
(PID.TID 0000.0001)                 0.000000000000000E+00
(PID.TID 0000.0001)     ;
(PID.TID 0000.0001) diffKrNrT = /* vertical profile of vertical diffusion of Temp ( m^2/s )*/
(PID.TID 0000.0001)    40 @  1.000000000000000E-05              /* K =  1: 40 */
(PID.TID 0000.0001)     ;
(PID.TID 0000.0001) diffKrNrS = /* vertical profile of vertical diffusion of Salt ( m^2/s )*/
(PID.TID 0000.0001)    40 @  1.000000000000000E-05              /* K =  1: 40 */
(PID.TID 0000.0001)     ;
(PID.TID 0000.0001) diffKrBL79surf = /* Surface diffusion for Bryan and Lewis 79 ( m^2/s ) */
(PID.TID 0000.0001)                 0.000000000000000E+00
(PID.TID 0000.0001)     ;
(PID.TID 0000.0001) diffKrBL79deep = /* Deep diffusion for Bryan and Lewis 1979 ( m^2/s ) */
(PID.TID 0000.0001)                 0.000000000000000E+00
(PID.TID 0000.0001)     ;
(PID.TID 0000.0001) diffKrBL79scl = /* Depth scale for Bryan and Lewis 1979 ( m ) */
(PID.TID 0000.0001)                 2.000000000000000E+02
(PID.TID 0000.0001)     ;
(PID.TID 0000.0001) diffKrBL79Ho = /* Turning depth for Bryan and Lewis 1979 ( m ) */
(PID.TID 0000.0001)                -2.000000000000000E+03
(PID.TID 0000.0001)     ;
(PID.TID 0000.0001) ivdc_kappa = /* Implicit Vertical Diffusivity for Convection ( m^2/s) */
(PID.TID 0000.0001)                 1.000000000000000E+00
(PID.TID 0000.0001)     ;
(PID.TID 0000.0001) hMixCriteria=  /* Criteria for mixed-layer diagnostic */
(PID.TID 0000.0001)                -8.000000000000000E-01
(PID.TID 0000.0001)     ;
(PID.TID 0000.0001) dRhoSmall =  /* Parameter for mixed-layer diagnostic */
(PID.TID 0000.0001)                 1.000000000000000E-06
(PID.TID 0000.0001)     ;
(PID.TID 0000.0001) hMixSmooth=  /* Smoothing parameter for mixed-layer diagnostic */
(PID.TID 0000.0001)                 0.000000000000000E+00
(PID.TID 0000.0001)     ;
(PID.TID 0000.0001) eosType =  /* Type of Equation of State */
(PID.TID 0000.0001)               'LINEAR'
(PID.TID 0000.0001)     ;
(PID.TID 0000.0001) tAlpha = /* Linear EOS thermal expansion coefficient ( 1/oC ) */
(PID.TID 0000.0001)                 2.000000000000000E-04
(PID.TID 0000.0001)     ;
(PID.TID 0000.0001) sBeta  = /* Linear EOS haline contraction coefficient ( 1/(g/kg) ) */
(PID.TID 0000.0001)                 7.400000000000000E-04
(PID.TID 0000.0001)     ;
(PID.TID 0000.0001) rhoNil    = /* Reference density for Linear EOS ( kg/m^3 ) */
(PID.TID 0000.0001)                 9.998000000000000E+02
(PID.TID 0000.0001)     ;
(PID.TID 0000.0001) selectP_inEOS_Zc = /* select pressure to use in EOS (0,1,2,3) */
(PID.TID 0000.0001)                       0
(PID.TID 0000.0001)     0= -g*rhoConst*z ; 1= pRef (from tRef,sRef); 2= Hyd P ; 3= Hyd+NH P
(PID.TID 0000.0001)     ;
(PID.TID 0000.0001) surf_pRef = /* Surface reference pressure ( Pa ) */
(PID.TID 0000.0001)                 1.013250000000000E+05
(PID.TID 0000.0001)     ;
(PID.TID 0000.0001) HeatCapacity_Cp =  /* Specific heat capacity ( J/kg/K ) */
(PID.TID 0000.0001)                 3.994000000000000E+03
(PID.TID 0000.0001)     ;
(PID.TID 0000.0001) celsius2K = /* 0 degree Celsius converted to Kelvin ( K ) */
(PID.TID 0000.0001)                 2.731500000000000E+02
(PID.TID 0000.0001)     ;
(PID.TID 0000.0001) rhoConst  = /* Reference density (Boussinesq)  ( kg/m^3 ) */
(PID.TID 0000.0001)                 9.998000000000000E+02
(PID.TID 0000.0001)     ;
(PID.TID 0000.0001) rhoFacC = /* normalized Reference density @ cell-Center (-) */
(PID.TID 0000.0001)    40 @  1.000000000000000E+00              /* K =  1: 40 */
(PID.TID 0000.0001)     ;
(PID.TID 0000.0001) rhoFacF = /* normalized Reference density @ W-Interface (-) */
(PID.TID 0000.0001)    41 @  1.000000000000000E+00              /* K =  1: 41 */
(PID.TID 0000.0001)     ;
(PID.TID 0000.0001) rhoConstFresh = /* Fresh-water reference density ( kg/m^3 ) */
(PID.TID 0000.0001)                 9.998000000000000E+02
(PID.TID 0000.0001)     ;
(PID.TID 0000.0001) gravity =   /* Gravitational acceleration ( m/s^2 ) */
(PID.TID 0000.0001)                 9.810000000000000E+00
(PID.TID 0000.0001)     ;
(PID.TID 0000.0001) gBaro =   /* Barotropic gravity ( m/s^2 ) */
(PID.TID 0000.0001)                 9.810000000000000E+00
(PID.TID 0000.0001)     ;
(PID.TID 0000.0001) gravFacC = /* gravity factor (vs surf.) @ cell-Center (-) */
(PID.TID 0000.0001)    40 @  1.000000000000000E+00              /* K =  1: 40 */
(PID.TID 0000.0001)     ;
(PID.TID 0000.0001) gravFacF = /* gravity factor (vs surf.) @ W-Interface (-) */
(PID.TID 0000.0001)    41 @  1.000000000000000E+00              /* K =  1: 41 */
(PID.TID 0000.0001)     ;
(PID.TID 0000.0001) rotationPeriod =   /* Rotation Period ( s ) */
(PID.TID 0000.0001)                 8.616400000000000E+04
(PID.TID 0000.0001)     ;
(PID.TID 0000.0001) omega =   /* Angular velocity ( rad/s ) */
(PID.TID 0000.0001)                 7.292123516990375E-05
(PID.TID 0000.0001)     ;
(PID.TID 0000.0001) f0 =   /* Reference coriolis parameter ( 1/s ) */
(PID.TID 0000.0001)                 6.940000000000000E-04
(PID.TID 0000.0001)     ;
(PID.TID 0000.0001) beta =   /* Beta ( 1/(m.s) ) */
(PID.TID 0000.0001)                 9.999999999999999E-12
(PID.TID 0000.0001)     ;
(PID.TID 0000.0001) fPrime =   /* Second coriolis parameter ( 1/s ) */
(PID.TID 0000.0001)                 0.000000000000000E+00
(PID.TID 0000.0001)     ;
(PID.TID 0000.0001) rigidLid =   /* Rigid lid on/off flag */
(PID.TID 0000.0001)                   F
(PID.TID 0000.0001)     ;
(PID.TID 0000.0001) implicitFreeSurface =   /* Implicit free surface on/off flag */
(PID.TID 0000.0001)                   T
(PID.TID 0000.0001)     ;
(PID.TID 0000.0001) freeSurfFac =   /* Implicit free surface factor */
(PID.TID 0000.0001)                 1.000000000000000E+00
(PID.TID 0000.0001)     ;
(PID.TID 0000.0001) implicSurfPress =  /* Surface Pressure implicit factor (0-1) */
(PID.TID 0000.0001)                 1.000000000000000E+00
(PID.TID 0000.0001)     ;
(PID.TID 0000.0001) implicDiv2DFlow =  /* Barot. Flow Div. implicit factor (0-1) */
(PID.TID 0000.0001)                 1.000000000000000E+00
(PID.TID 0000.0001)     ;
(PID.TID 0000.0001) uniformLin_PhiSurf = /* use uniform Bo_surf on/off flag */
(PID.TID 0000.0001)                   T
(PID.TID 0000.0001)     ;
(PID.TID 0000.0001) uniformFreeSurfLev = /* free-surface level-index is uniform */
(PID.TID 0000.0001)                   T
(PID.TID 0000.0001)     ;
(PID.TID 0000.0001) sIceLoadFac =  /* scale factor for sIceLoad (0-1) */
(PID.TID 0000.0001)                 1.000000000000000E+00
(PID.TID 0000.0001)     ;
(PID.TID 0000.0001) hFacMin =   /* minimum partial cell factor (hFac) */
(PID.TID 0000.0001)                 1.000000000000000E+00
(PID.TID 0000.0001)     ;
(PID.TID 0000.0001) hFacMinDr = /* minimum partial cell thickness ( m) */
(PID.TID 0000.0001)                 0.000000000000000E+00
(PID.TID 0000.0001)     ;
(PID.TID 0000.0001) exactConserv =  /* Exact Volume Conservation on/off flag */
(PID.TID 0000.0001)                   T
(PID.TID 0000.0001)     ;
(PID.TID 0000.0001) linFSConserveTr = /* Tracer correction for Lin Free Surface on/off flag */
(PID.TID 0000.0001)                   F
(PID.TID 0000.0001)     ;
(PID.TID 0000.0001) nonlinFreeSurf = /* Non-linear Free Surf. options (-1,0,1,2,3)*/
(PID.TID 0000.0001)                       0
(PID.TID 0000.0001)      -1,0= Off ; 1,2,3= On, 2=+rescale gU,gV, 3=+update cg2d solv.
(PID.TID 0000.0001)     ;
(PID.TID 0000.0001) hFacInf =   /* lower threshold for hFac (nonlinFreeSurf only)*/
(PID.TID 0000.0001)                 2.000000000000000E-01
(PID.TID 0000.0001)     ;
(PID.TID 0000.0001) hFacSup =   /* upper threshold for hFac (nonlinFreeSurf only)*/
(PID.TID 0000.0001)                 2.000000000000000E+00
(PID.TID 0000.0001)     ;
(PID.TID 0000.0001) select_rStar = /* r* Vertical coord. options (=0 r coord.; >0 uses r*)*/
(PID.TID 0000.0001)                       0
(PID.TID 0000.0001)     ;
(PID.TID 0000.0001) useRealFreshWaterFlux = /* Real Fresh Water Flux on/off flag*/
(PID.TID 0000.0001)                   F
(PID.TID 0000.0001)     ;
(PID.TID 0000.0001) temp_EvPrRn = /* Temp. of Evap/Prec/R (UNSET=use local T)(oC)*/
(PID.TID 0000.0001)                 1.234567000000000E+05
(PID.TID 0000.0001)     ;
(PID.TID 0000.0001) salt_EvPrRn = /* Salin. of Evap/Prec/R (UNSET=use local S)(g/kg)*/
(PID.TID 0000.0001)                 0.000000000000000E+00
(PID.TID 0000.0001)     ;
(PID.TID 0000.0001) selectAddFluid = /* option for mass source/sink of fluid (=0: off) */
(PID.TID 0000.0001)                       0
(PID.TID 0000.0001)     ;
(PID.TID 0000.0001) temp_addMass = /* Temp. of addMass array (UNSET=use local T)(oC)*/
(PID.TID 0000.0001)                 1.234567000000000E+05
(PID.TID 0000.0001)     ;
(PID.TID 0000.0001) salt_addMass = /* Salin. of addMass array (UNSET=use local S)(g/kg)*/
(PID.TID 0000.0001)                 0.000000000000000E+00
(PID.TID 0000.0001)     ;
(PID.TID 0000.0001) convertFW2Salt = /* convert F.W. Flux to Salt Flux (-1=use local S)(g/kg)*/
(PID.TID 0000.0001)                 3.500000000000000E+01
(PID.TID 0000.0001)     ;
(PID.TID 0000.0001) use3Dsolver = /* use 3-D pressure solver on/off flag */
(PID.TID 0000.0001)                   F
(PID.TID 0000.0001)     ;
(PID.TID 0000.0001) nonHydrostatic =  /* Non-Hydrostatic on/off flag */
(PID.TID 0000.0001)                   F
(PID.TID 0000.0001)     ;
(PID.TID 0000.0001) nh_Am2 = /* Non-Hydrostatic terms scaling factor */
(PID.TID 0000.0001)                 1.000000000000000E+00
(PID.TID 0000.0001)     ;
(PID.TID 0000.0001) implicitNHPress = /* Non-Hyd Pressure implicit factor (0-1)*/
(PID.TID 0000.0001)                 1.000000000000000E+00
(PID.TID 0000.0001)     ;
(PID.TID 0000.0001) selectNHfreeSurf = /* Non-Hyd (free-)Surface option */
(PID.TID 0000.0001)                       0
(PID.TID 0000.0001)     ;
(PID.TID 0000.0001) quasiHydrostatic = /* Quasi-Hydrostatic on/off flag */
(PID.TID 0000.0001)                   F
(PID.TID 0000.0001)     ;
(PID.TID 0000.0001) calc_wVelocity = /* vertical velocity calculation on/off flag */
(PID.TID 0000.0001)                   T
(PID.TID 0000.0001)     ;
(PID.TID 0000.0001) momStepping =  /* Momentum equation on/off flag */
(PID.TID 0000.0001)                   T
(PID.TID 0000.0001)     ;
(PID.TID 0000.0001) vectorInvariantMomentum= /* Vector-Invariant Momentum on/off */
(PID.TID 0000.0001)                   F
(PID.TID 0000.0001)     ;
(PID.TID 0000.0001) momAdvection =  /* Momentum advection on/off flag */
(PID.TID 0000.0001)                   T
(PID.TID 0000.0001)     ;
(PID.TID 0000.0001) momViscosity =  /* Momentum viscosity on/off flag */
(PID.TID 0000.0001)                   T
(PID.TID 0000.0001)     ;
(PID.TID 0000.0001) momImplVertAdv= /* Momentum implicit vert. advection on/off*/
(PID.TID 0000.0001)                   F
(PID.TID 0000.0001)     ;
(PID.TID 0000.0001) implicitViscosity = /* Implicit viscosity on/off flag */
(PID.TID 0000.0001)                   F
(PID.TID 0000.0001)     ;
(PID.TID 0000.0001) selectImplicitDrag= /* Implicit bot Drag options (0,1,2)*/
(PID.TID 0000.0001)                       0
(PID.TID 0000.0001)     0= Expl. ; 1= Impl. on provis. Vel ; 2= Fully Impl (with surf.P)
(PID.TID 0000.0001)     ;
(PID.TID 0000.0001) selectMetricTerms= /* Metric-Terms on/off flag (=0/1) */
(PID.TID 0000.0001)                       0
(PID.TID 0000.0001)     ;
(PID.TID 0000.0001) useNHMTerms = /* Non-Hydrostatic Metric-Terms on/off */
(PID.TID 0000.0001)                   F
(PID.TID 0000.0001)     ;
(PID.TID 0000.0001) selectCoriMap = /* Coriolis Map options (0,1,2,3)*/
(PID.TID 0000.0001)                       1
(PID.TID 0000.0001)     0= f-Plane ; 1= Beta-Plane ; 2= Spherical ; 3= read from file
(PID.TID 0000.0001)     ;
(PID.TID 0000.0001) select3dCoriScheme= /* 3-D Coriolis on/off flag (=0/1) */
(PID.TID 0000.0001)                       0
(PID.TID 0000.0001)     ;
(PID.TID 0000.0001) useCoriolis =  /* Coriolis on/off flag */
(PID.TID 0000.0001)                   T
(PID.TID 0000.0001)     ;
(PID.TID 0000.0001) useCDscheme =  /* CD scheme on/off flag */
(PID.TID 0000.0001)                   F
(PID.TID 0000.0001)     ;
(PID.TID 0000.0001) selectCoriScheme= /* Scheme selector for Coriolis-Term */
(PID.TID 0000.0001)                       0
(PID.TID 0000.0001)    = 0 : original discretization (simple averaging, no hFac)
(PID.TID 0000.0001)    = 1 : Wet-point averaging (Jamar & Ozer 1986)
(PID.TID 0000.0001)    = 2 : energy conserving scheme (no hFac weight)
(PID.TID 0000.0001)    = 3 : energy conserving scheme using Wet-point averaging
(PID.TID 0000.0001)     ;
(PID.TID 0000.0001) momForcing =  /* Momentum forcing on/off flag */
(PID.TID 0000.0001)                   T
(PID.TID 0000.0001)     ;
(PID.TID 0000.0001) momTidalForcing = /* Momentum Tidal forcing on/off flag */
(PID.TID 0000.0001)                   T
(PID.TID 0000.0001)     ;
(PID.TID 0000.0001) momPressureForcing =  /* Momentum pressure term on/off flag */
(PID.TID 0000.0001)                   T
(PID.TID 0000.0001)     ;
(PID.TID 0000.0001) implicitIntGravWave= /* Implicit Internal Gravity Wave flag */
(PID.TID 0000.0001)                   F
(PID.TID 0000.0001)     ;
(PID.TID 0000.0001) staggerTimeStep =    /* Stagger time stepping on/off flag */
(PID.TID 0000.0001)                   F
(PID.TID 0000.0001)     ;
(PID.TID 0000.0001) doResetHFactors = /* reset thickness factors @ each time-step */
(PID.TID 0000.0001)                   F
(PID.TID 0000.0001)     ;
(PID.TID 0000.0001) multiDimAdvection =  /* enable/disable Multi-Dim Advection */
(PID.TID 0000.0001)                   T
(PID.TID 0000.0001)     ;
(PID.TID 0000.0001) useMultiDimAdvec =   /* Multi-Dim Advection is/is-not used */
(PID.TID 0000.0001)                   F
(PID.TID 0000.0001)     ;
(PID.TID 0000.0001) implicitDiffusion = /* Implicit Diffusion on/off flag */
(PID.TID 0000.0001)                   T
(PID.TID 0000.0001)     ;
(PID.TID 0000.0001) tempStepping =  /* Temperature equation on/off flag */
(PID.TID 0000.0001)                   T
(PID.TID 0000.0001)     ;
(PID.TID 0000.0001) tempAdvection = /* Temperature advection on/off flag */
(PID.TID 0000.0001)                   T
(PID.TID 0000.0001)     ;
(PID.TID 0000.0001) tempImplVertAdv = /* Temp. implicit vert. advection on/off */
(PID.TID 0000.0001)                   F
(PID.TID 0000.0001)     ;
(PID.TID 0000.0001) tempForcing  =  /* Temperature forcing on/off flag */
(PID.TID 0000.0001)                   T
(PID.TID 0000.0001)     ;
(PID.TID 0000.0001) doThetaClimRelax = /* apply SST relaxation on/off flag */
(PID.TID 0000.0001)                   F
(PID.TID 0000.0001)     ;
(PID.TID 0000.0001) tempIsActiveTr = /* Temp. is a dynamically Active Tracer */
(PID.TID 0000.0001)                   T
(PID.TID 0000.0001)     ;
(PID.TID 0000.0001) saltStepping =  /* Salinity equation on/off flag */
(PID.TID 0000.0001)                   T
(PID.TID 0000.0001)     ;
(PID.TID 0000.0001) saltAdvection = /* Salinity advection on/off flag */
(PID.TID 0000.0001)                   T
(PID.TID 0000.0001)     ;
(PID.TID 0000.0001) saltImplVertAdv = /* Sali. implicit vert. advection on/off */
(PID.TID 0000.0001)                   F
(PID.TID 0000.0001)     ;
(PID.TID 0000.0001) saltForcing  =  /* Salinity forcing on/off flag */
(PID.TID 0000.0001)                   T
(PID.TID 0000.0001)     ;
(PID.TID 0000.0001) doSaltClimRelax = /* apply SSS relaxation on/off flag */
(PID.TID 0000.0001)                   F
(PID.TID 0000.0001)     ;
(PID.TID 0000.0001) saltIsActiveTr = /* Salt  is a dynamically Active Tracer */
(PID.TID 0000.0001)                   T
(PID.TID 0000.0001)     ;
(PID.TID 0000.0001)  readBinaryPrec = /* Precision used for reading binary files */
(PID.TID 0000.0001)                      64
(PID.TID 0000.0001)     ;
(PID.TID 0000.0001) writeBinaryPrec = /* Precision used for writing binary files */
(PID.TID 0000.0001)                      64
(PID.TID 0000.0001)     ;
(PID.TID 0000.0001)  rwSuffixType =   /* select format of mds file suffix */
(PID.TID 0000.0001)                       0
(PID.TID 0000.0001)    = 0 : myIter (I10.10) ;   = 1 : 100*myTime (100th sec) ;
(PID.TID 0000.0001)    = 2 : myTime (seconds);   = 3 : myTime/360 (10th of hr);
(PID.TID 0000.0001)    = 4 : myTime/3600 (hours)
(PID.TID 0000.0001)     ;
(PID.TID 0000.0001)  globalFiles = /* write "global" (=not per tile) files */
(PID.TID 0000.0001)                   F
(PID.TID 0000.0001)     ;
(PID.TID 0000.0001)  useSingleCpuIO = /* only master MPI process does I/O */
(PID.TID 0000.0001)                   T
(PID.TID 0000.0001)     ;
(PID.TID 0000.0001)  useSingleCpuInput = /* only master process reads input */
(PID.TID 0000.0001)                   T
(PID.TID 0000.0001)     ;
(PID.TID 0000.0001) /* debLev[*]  : level of debug & auxiliary message printing */
(PID.TID 0000.0001) debLevZero =  0 ; /* level of disabled aux. msg printing */
(PID.TID 0000.0001)    debLevA =  1 ; /* level of minimum  aux. msg printing */
(PID.TID 0000.0001)    debLevB =  2 ; /* level of low aux. print (report read-file opening)*/
(PID.TID 0000.0001)    debLevC =  3 ; /* level of moderate debug prt (most pkgs debug msg) */
(PID.TID 0000.0001)    debLevD =  4 ; /* level of enhanced debug prt (add DEBUG_STATS prt) */
(PID.TID 0000.0001)    debLevE =  5 ; /* level of extensive debug printing */
(PID.TID 0000.0001) debugLevel =  /* select debug printing level */
(PID.TID 0000.0001)                       2
(PID.TID 0000.0001)     ;
(PID.TID 0000.0001)  plotLevel =  /* select PLOT_FIELD printing level */
(PID.TID 0000.0001)                       2
(PID.TID 0000.0001)     ;
(PID.TID 0000.0001) //
(PID.TID 0000.0001) // Elliptic solver(s) paramters ( PARM02 in namelist )
(PID.TID 0000.0001) //
(PID.TID 0000.0001) cg2dMaxIters =   /* Upper limit on 2d con. grad iterations  */
(PID.TID 0000.0001)                    1000
(PID.TID 0000.0001)     ;
(PID.TID 0000.0001) cg2dMinItersNSA =   /* Minimum number of iterations of 2d con. grad solver  */
(PID.TID 0000.0001)                       0
(PID.TID 0000.0001)     ;
(PID.TID 0000.0001) cg2dUseMinResSol= /* use cg2d last-iter(=0) / min-resid.(=1) solution */
(PID.TID 0000.0001)                       0
(PID.TID 0000.0001)     ;
(PID.TID 0000.0001) cg2dTargetResidual =   /* 2d con. grad target residual  */
(PID.TID 0000.0001)                 1.000000000000000E-07
(PID.TID 0000.0001)     ;
(PID.TID 0000.0001) cg2dTargetResWunit =   /* CG2d target residual [W units] */
(PID.TID 0000.0001)                -1.000000000000000E+00
(PID.TID 0000.0001)     ;
(PID.TID 0000.0001) cg2dPreCondFreq =   /* Freq. for updating cg2d preconditioner */
(PID.TID 0000.0001)                       1
(PID.TID 0000.0001)     ;
(PID.TID 0000.0001) useSRCGSolver =  /* use single reduction CG solver(s) */
(PID.TID 0000.0001)                   F
(PID.TID 0000.0001)     ;
(PID.TID 0000.0001) useNSACGSolver =  /* use not-self-adjoint CG solver */
(PID.TID 0000.0001)                   F
(PID.TID 0000.0001)     ;
(PID.TID 0000.0001) printResidualFreq = /* Freq. for printing CG residual */
(PID.TID 0000.0001)                       0
(PID.TID 0000.0001)     ;
(PID.TID 0000.0001) //
(PID.TID 0000.0001) // Time stepping paramters ( PARM03 in namelist )
(PID.TID 0000.0001) //
(PID.TID 0000.0001) deltaTMom =   /* Momentum equation timestep ( s ) */
(PID.TID 0000.0001)                 6.000000000000000E+01
(PID.TID 0000.0001)     ;
(PID.TID 0000.0001) deltaTFreeSurf = /* FreeSurface equation timestep ( s ) */
(PID.TID 0000.0001)                 6.000000000000000E+01
(PID.TID 0000.0001)     ;
(PID.TID 0000.0001) dTtracerLev =  /* Tracer equation timestep ( s ) */
(PID.TID 0000.0001)    40 @  6.000000000000000E+01              /* K =  1: 40 */
(PID.TID 0000.0001)     ;
(PID.TID 0000.0001) deltaTClock  =   /* Model clock timestep ( s ) */
(PID.TID 0000.0001)                 6.000000000000000E+01
(PID.TID 0000.0001)     ;
(PID.TID 0000.0001) cAdjFreq =   /* Convective adjustment interval ( s ) */
(PID.TID 0000.0001)                 0.000000000000000E+00
(PID.TID 0000.0001)     ;
(PID.TID 0000.0001) momForcingOutAB = /* =1: take Momentum Forcing out of Adams-Bash. stepping */
(PID.TID 0000.0001)                       0
(PID.TID 0000.0001)     ;
(PID.TID 0000.0001) tracForcingOutAB = /* =1: take T,S,pTr Forcing out of Adams-Bash. stepping */
(PID.TID 0000.0001)                       0
(PID.TID 0000.0001)     ;
(PID.TID 0000.0001) momDissip_In_AB = /* put Dissipation Tendency in Adams-Bash. stepping */
(PID.TID 0000.0001)                   T
(PID.TID 0000.0001)     ;
(PID.TID 0000.0001) doAB_onGtGs = /* apply AB on Tendencies (rather than on T,S)*/
(PID.TID 0000.0001)                   T
(PID.TID 0000.0001)     ;
(PID.TID 0000.0001) abEps =   /* Adams-Bashforth-2 stabilizing weight */
(PID.TID 0000.0001)                 1.000000000000000E-02
(PID.TID 0000.0001)     ;
(PID.TID 0000.0001) applyExchUV_early = /* Apply EXCH to U,V earlier in time-step */
(PID.TID 0000.0001)                   F
(PID.TID 0000.0001)     ;
(PID.TID 0000.0001) pickupStrictlyMatch= /* stop if pickup do not strictly match */
(PID.TID 0000.0001)                   T
(PID.TID 0000.0001)     ;
(PID.TID 0000.0001) nIter0   =   /* Run starting timestep number */
(PID.TID 0000.0001)                       0
(PID.TID 0000.0001)     ;
(PID.TID 0000.0001) nTimeSteps = /* Number of timesteps */
(PID.TID 0000.0001)                     600
(PID.TID 0000.0001)     ;
(PID.TID 0000.0001) nEndIter =   /* Run ending timestep number */
(PID.TID 0000.0001)                     600
(PID.TID 0000.0001)     ;
(PID.TID 0000.0001) baseTime =   /* Model base time ( s ) */
(PID.TID 0000.0001)                 0.000000000000000E+00
(PID.TID 0000.0001)     ;
(PID.TID 0000.0001) startTime =  /* Run start time ( s ) */
(PID.TID 0000.0001)                 0.000000000000000E+00
(PID.TID 0000.0001)     ;
(PID.TID 0000.0001) endTime  =   /* Integration ending time ( s ) */
(PID.TID 0000.0001)                 3.600000000000000E+04
(PID.TID 0000.0001)     ;
(PID.TID 0000.0001) pChkPtFreq = /* Permanent restart/pickup file interval ( s ) */
(PID.TID 0000.0001)                 0.000000000000000E+00
(PID.TID 0000.0001)     ;
(PID.TID 0000.0001) chkPtFreq  = /* Rolling restart/pickup file interval ( s ) */
(PID.TID 0000.0001)                 4.320000000000000E+04
(PID.TID 0000.0001)     ;
(PID.TID 0000.0001) pickup_write_mdsio =   /* Model IO flag. */
(PID.TID 0000.0001)                   T
(PID.TID 0000.0001)     ;
(PID.TID 0000.0001) pickup_read_mdsio =   /* Model IO flag. */
(PID.TID 0000.0001)                   T
(PID.TID 0000.0001)     ;
(PID.TID 0000.0001) pickup_write_mnc =   /* Model IO flag. */
(PID.TID 0000.0001)                   F
(PID.TID 0000.0001)     ;
(PID.TID 0000.0001) pickup_read_mnc =   /* Model IO flag. */
(PID.TID 0000.0001)                   F
(PID.TID 0000.0001)     ;
(PID.TID 0000.0001) writePickupAtEnd =   /* Model IO flag. */
(PID.TID 0000.0001)                   T
(PID.TID 0000.0001)     ;
(PID.TID 0000.0001) dumpFreq =   /* Model state write out interval ( s ). */
(PID.TID 0000.0001)                 1.200000000000000E+03
(PID.TID 0000.0001)     ;
(PID.TID 0000.0001) dumpInitAndLast= /* write out Initial & Last iter. model state */
(PID.TID 0000.0001)                   T
(PID.TID 0000.0001)     ;
(PID.TID 0000.0001) snapshot_mdsio =   /* Model IO flag. */
(PID.TID 0000.0001)                   F
(PID.TID 0000.0001)     ;
(PID.TID 0000.0001) snapshot_mnc =   /* Model IO flag. */
(PID.TID 0000.0001)                   T
(PID.TID 0000.0001)     ;
(PID.TID 0000.0001) monitorFreq =   /* Monitor output interval ( s ). */
(PID.TID 0000.0001)                 1.200000000000000E+03
(PID.TID 0000.0001)     ;
(PID.TID 0000.0001) monitorSelect = /* select group of variables to monitor */
(PID.TID 0000.0001)                       2
(PID.TID 0000.0001)     ;
(PID.TID 0000.0001) monitor_stdio =   /* Model IO flag. */
(PID.TID 0000.0001)                   T
(PID.TID 0000.0001)     ;
(PID.TID 0000.0001) monitor_mnc =   /* Model IO flag. */
(PID.TID 0000.0001)                   F
(PID.TID 0000.0001)     ;
(PID.TID 0000.0001) externForcingPeriod =   /* forcing period (s) */
(PID.TID 0000.0001)                 6.000000000000000E+02
(PID.TID 0000.0001)     ;
(PID.TID 0000.0001) externForcingCycle =   /* period of the cyle (s). */
(PID.TID 0000.0001)                 3.600000000000000E+04
(PID.TID 0000.0001)     ;
(PID.TID 0000.0001) tauThetaClimRelax =   /* relaxation time scale (s) */
(PID.TID 0000.0001)                 0.000000000000000E+00
(PID.TID 0000.0001)     ;
(PID.TID 0000.0001) tauSaltClimRelax =   /* relaxation time scale (s) */
(PID.TID 0000.0001)                 0.000000000000000E+00
(PID.TID 0000.0001)     ;
(PID.TID 0000.0001) latBandClimRelax =   /* max. Lat. where relaxation */
(PID.TID 0000.0001)                 1.264022399999999E+06
(PID.TID 0000.0001)     ;
(PID.TID 0000.0001) //
(PID.TID 0000.0001) // Gridding paramters ( PARM04 in namelist )
(PID.TID 0000.0001) //
(PID.TID 0000.0001) usingCartesianGrid = /* Cartesian coordinates flag ( True/False ) */
(PID.TID 0000.0001)                   T
(PID.TID 0000.0001)     ;
(PID.TID 0000.0001) usingCylindricalGrid = /* Cylindrical coordinates flag ( True/False ) */
(PID.TID 0000.0001)                   F
(PID.TID 0000.0001)     ;
(PID.TID 0000.0001) usingSphericalPolarGrid = /* Spherical coordinates flag ( True/False ) */
(PID.TID 0000.0001)                   F
(PID.TID 0000.0001)     ;
(PID.TID 0000.0001) usingCurvilinearGrid = /* Curvilinear coordinates flag ( True/False ) */
(PID.TID 0000.0001)                   F
(PID.TID 0000.0001)     ;
(PID.TID 0000.0001) useMin4hFacEdges = /* set hFacW,S as minimum of adjacent hFacC factor */
(PID.TID 0000.0001)                   F
(PID.TID 0000.0001)     ;
(PID.TID 0000.0001) interViscAr_pCell = /* account for partial-cell in interior vert. viscosity */
(PID.TID 0000.0001)                   F
(PID.TID 0000.0001)     ;
(PID.TID 0000.0001) interDiffKr_pCell = /* account for partial-cell in interior vert. diffusion */
(PID.TID 0000.0001)                   F
(PID.TID 0000.0001)     ;
(PID.TID 0000.0001) pCellMix_select = /* option to enhance mixing near surface & bottom */
(PID.TID 0000.0001)                       0
(PID.TID 0000.0001)     ;
(PID.TID 0000.0001) selectSigmaCoord = /* Hybrid-Sigma Vert. Coordinate option */
(PID.TID 0000.0001)                       0
(PID.TID 0000.0001)     ;
(PID.TID 0000.0001) rSigmaBnd = /* r/sigma transition ( units of r ==  m ) */
(PID.TID 0000.0001)                 1.234567000000000E+05
(PID.TID 0000.0001)     ;
(PID.TID 0000.0001) rkSign =   /* index orientation relative to vertical coordinate */
(PID.TID 0000.0001)                -1.000000000000000E+00
(PID.TID 0000.0001)     ;
(PID.TID 0000.0001) gravitySign = /* gravity orientation relative to vertical coordinate */
(PID.TID 0000.0001)                -1.000000000000000E+00
(PID.TID 0000.0001)     ;
(PID.TID 0000.0001) seaLev_Z =  /* reference height of sea-level [m] */
(PID.TID 0000.0001)                 0.000000000000000E+00
(PID.TID 0000.0001)     ;
(PID.TID 0000.0001) top_Pres =  /* reference pressure at the top [Pa] */
(PID.TID 0000.0001)                 0.000000000000000E+00
(PID.TID 0000.0001)     ;
(PID.TID 0000.0001) mass2rUnit = /* convert mass per unit area [kg/m2] to r-units [m] */
(PID.TID 0000.0001)                 1.000200040008002E-03
(PID.TID 0000.0001)     ;
(PID.TID 0000.0001) rUnit2mass = /* convert r-units [m] to mass per unit area [kg/m2] */
(PID.TID 0000.0001)                 9.998000000000000E+02
(PID.TID 0000.0001)     ;
(PID.TID 0000.0001) drC =   /* C spacing ( units of r ) */
(PID.TID 0000.0001)                 1.000000000000000E+00,      /* K =  1 */
(PID.TID 0000.0001)                 2.100000000000000E+00,      /* K =  2 */
(PID.TID 0000.0001)                 2.300000000000000E+00,      /* K =  3 */
(PID.TID 0000.0001)                 2.550000000000000E+00,      /* K =  4 */
(PID.TID 0000.0001)                 2.850000000000000E+00,      /* K =  5 */
(PID.TID 0000.0001)                 3.150000000000000E+00,      /* K =  6 */
(PID.TID 0000.0001)                 3.450000000000000E+00,      /* K =  7 */
(PID.TID 0000.0001)                 3.800000000000000E+00,      /* K =  8 */
(PID.TID 0000.0001)                 4.200000000000000E+00,      /* K =  9 */
(PID.TID 0000.0001)                 4.650000000000000E+00,      /* K = 10 */
(PID.TID 0000.0001)                 5.150000000000000E+00,      /* K = 11 */
(PID.TID 0000.0001)                 5.700000000000000E+00,      /* K = 12 */
(PID.TID 0000.0001)                 6.300000000000000E+00,      /* K = 13 */
(PID.TID 0000.0001)                 6.949999999999999E+00,      /* K = 14 */
(PID.TID 0000.0001)                 7.650000000000000E+00,      /* K = 15 */
(PID.TID 0000.0001)                 8.449999999999999E+00,      /* K = 16 */
(PID.TID 0000.0001)                 9.350000000000001E+00,      /* K = 17 */
(PID.TID 0000.0001)                 1.030000000000000E+01,      /* K = 18 */
(PID.TID 0000.0001)                 1.140000000000000E+01,      /* K = 19 */
(PID.TID 0000.0001)                 1.260000000000000E+01,      /* K = 20 */
(PID.TID 0000.0001)                 1.390000000000000E+01,      /* K = 21 */
(PID.TID 0000.0001)                 1.535000000000000E+01,      /* K = 22 */
(PID.TID 0000.0001)                 1.695000000000000E+01,      /* K = 23 */
(PID.TID 0000.0001)                 1.875000000000000E+01,      /* K = 24 */
(PID.TID 0000.0001)                 2.070000000000000E+01,      /* K = 25 */
(PID.TID 0000.0001)                 2.285000000000000E+01,      /* K = 26 */
(PID.TID 0000.0001)                 2.525000000000000E+01,      /* K = 27 */
(PID.TID 0000.0001)                 2.790000000000000E+01,      /* K = 28 */
(PID.TID 0000.0001)                 3.080000000000000E+01,      /* K = 29 */
(PID.TID 0000.0001)                 3.400000000000000E+01,      /* K = 30 */
(PID.TID 0000.0001)                 3.755000000000000E+01,      /* K = 31 */
(PID.TID 0000.0001)                 4.150000000000000E+01,      /* K = 32 */
(PID.TID 0000.0001)                 4.585000000000000E+01,      /* K = 33 */
(PID.TID 0000.0001)                 5.060000000000000E+01,      /* K = 34 */
(PID.TID 0000.0001)                 5.590000000000001E+01,      /* K = 35 */
(PID.TID 0000.0001)                 6.175000000000000E+01,      /* K = 36 */
(PID.TID 0000.0001)                 6.819999999999999E+01,      /* K = 37 */
(PID.TID 0000.0001)                 7.534999999999999E+01,      /* K = 38 */
(PID.TID 0000.0001)                 8.309999999999999E+01,      /* K = 39 */
(PID.TID 0000.0001)                 9.169999999999999E+01,      /* K = 40 */
(PID.TID 0000.0001)                 4.815000000000000E+01       /* K = 41 */
(PID.TID 0000.0001)     ;
(PID.TID 0000.0001) drF =   /* W spacing ( units of r ) */
(PID.TID 0000.0001)                 2.000000000000000E+00,      /* K =  1 */
(PID.TID 0000.0001)                 2.200000000000000E+00,      /* K =  2 */
(PID.TID 0000.0001)                 2.400000000000000E+00,      /* K =  3 */
(PID.TID 0000.0001)                 2.700000000000000E+00,      /* K =  4 */
(PID.TID 0000.0001)                 3.000000000000000E+00,      /* K =  5 */
(PID.TID 0000.0001)                 3.300000000000000E+00,      /* K =  6 */
(PID.TID 0000.0001)                 3.600000000000000E+00,      /* K =  7 */
(PID.TID 0000.0001)                 4.000000000000000E+00,      /* K =  8 */
(PID.TID 0000.0001)                 4.400000000000000E+00,      /* K =  9 */
(PID.TID 0000.0001)                 4.900000000000000E+00,      /* K = 10 */
(PID.TID 0000.0001)                 5.400000000000000E+00,      /* K = 11 */
(PID.TID 0000.0001)                 6.000000000000000E+00,      /* K = 12 */
(PID.TID 0000.0001)                 6.600000000000000E+00,      /* K = 13 */
(PID.TID 0000.0001)                 7.300000000000000E+00,      /* K = 14 */
(PID.TID 0000.0001)                 8.000000000000000E+00,      /* K = 15 */
(PID.TID 0000.0001)                 8.900000000000000E+00,      /* K = 16 */
(PID.TID 0000.0001)                 9.800000000000001E+00,      /* K = 17 */
(PID.TID 0000.0001)                 1.080000000000000E+01,      /* K = 18 */
(PID.TID 0000.0001)                 1.200000000000000E+01,      /* K = 19 */
(PID.TID 0000.0001)                 1.320000000000000E+01,      /* K = 20 */
(PID.TID 0000.0001)                 1.460000000000000E+01,      /* K = 21 */
(PID.TID 0000.0001)                 1.610000000000000E+01,      /* K = 22 */
(PID.TID 0000.0001)                 1.780000000000000E+01,      /* K = 23 */
(PID.TID 0000.0001)                 1.970000000000000E+01,      /* K = 24 */
(PID.TID 0000.0001)                 2.170000000000000E+01,      /* K = 25 */
(PID.TID 0000.0001)                 2.400000000000000E+01,      /* K = 26 */
(PID.TID 0000.0001)                 2.650000000000000E+01,      /* K = 27 */
(PID.TID 0000.0001)                 2.930000000000000E+01,      /* K = 28 */
(PID.TID 0000.0001)                 3.230000000000000E+01,      /* K = 29 */
(PID.TID 0000.0001)                 3.570000000000000E+01,      /* K = 30 */
(PID.TID 0000.0001)                 3.940000000000000E+01,      /* K = 31 */
(PID.TID 0000.0001)                 4.360000000000000E+01,      /* K = 32 */
(PID.TID 0000.0001)                 4.810000000000000E+01,      /* K = 33 */
(PID.TID 0000.0001)                 5.310000000000000E+01,      /* K = 34 */
(PID.TID 0000.0001)                 5.870000000000000E+01,      /* K = 35 */
(PID.TID 0000.0001)                 6.480000000000000E+01,      /* K = 36 */
(PID.TID 0000.0001)                 7.159999999999999E+01,      /* K = 37 */
(PID.TID 0000.0001)                 7.909999999999999E+01,      /* K = 38 */
(PID.TID 0000.0001)                 8.709999999999999E+01,      /* K = 39 */
(PID.TID 0000.0001)                 9.630000000000000E+01       /* K = 40 */
(PID.TID 0000.0001)     ;
(PID.TID 0000.0001) delX = /* U spacing ( m - cartesian, degrees - spherical ) */
(PID.TID 0000.0001)                 1.991600000000006E+03,      /* I =  1 */
(PID.TID 0000.0001)                 1.991699999999983E+03,      /* I =  2 */
(PID.TID 0000.0001)                 1.991600000000006E+03,      /* I =  3 */
(PID.TID 0000.0001)      . . .
(PID.TID 0000.0001)                 1.991600000000006E+03,      /* I = 58 */
(PID.TID 0000.0001)                 1.991699999999997E+03,      /* I = 59 */
(PID.TID 0000.0001)                 1.991599999999991E+03,      /* I = 60 */
(PID.TID 0000.0001)                 1.991600000000006E+03,      /* I = 61 */
(PID.TID 0000.0001)                 1.991699999999997E+03,      /* I = 62 */
(PID.TID 0000.0001)                 1.991600000000006E+03,      /* I = 63 */
(PID.TID 0000.0001)      . . .
(PID.TID 0000.0001)                 1.991700000000000E+03,      /* I =118 */
(PID.TID 0000.0001)                 1.991600000000000E+03,      /* I =119 */
(PID.TID 0000.0001)                 1.991600000000000E+03,      /* I =120 */
(PID.TID 0000.0001)                 1.991600000000000E+03,      /* I =121 */
(PID.TID 0000.0001)                 1.991700000000000E+03,      /* I =122 */
(PID.TID 0000.0001)                 1.991599999999999E+03,      /* I =123 */
(PID.TID 0000.0001)      . . .
(PID.TID 0000.0001)                 1.991699999999997E+03,      /* I =178 */
(PID.TID 0000.0001)                 1.991600000000006E+03,      /* I =179 */
(PID.TID 0000.0001)                 1.991599999999991E+03,      /* I =180 */
(PID.TID 0000.0001)                 1.991699999999997E+03,      /* I =181 */
(PID.TID 0000.0001)                 1.991600000000006E+03,      /* I =182 */
(PID.TID 0000.0001)                 1.991600000000006E+03,      /* I =183 */
(PID.TID 0000.0001)      . . .
(PID.TID 0000.0001)                 1.991699999999983E+03,      /* I =238 */
(PID.TID 0000.0001)                 1.991600000000006E+03,      /* I =239 */
(PID.TID 0000.0001)                 1.991600000000006E+03       /* I =240 */
(PID.TID 0000.0001)     ;
(PID.TID 0000.0001) delY = /* V spacing ( m - cartesian, degrees - spherical ) */
(PID.TID 0000.0001)                 2.340800000000003E+03,      /* J =  1 */
(PID.TID 0000.0001)                 2.340799999999996E+03,      /* J =  2 */
(PID.TID 0000.0001)                 2.340700000000004E+03,      /* J =  3 */
(PID.TID 0000.0001)      . . .
(PID.TID 0000.0001)                 2.340799999999996E+03,      /* J = 43 */
(PID.TID 0000.0001)                 2.340800000000003E+03,      /* J = 44 */
(PID.TID 0000.0001)                 2.340799999999996E+03,      /* J = 45 */
(PID.TID 0000.0001)                 2.340800000000003E+03,      /* J = 46 */
(PID.TID 0000.0001)                 2.340800000000003E+03,      /* J = 47 */
(PID.TID 0000.0001)                 2.340699999999997E+03,      /* J = 48 */
(PID.TID 0000.0001)      . . .
(PID.TID 0000.0001)                 2.340799999999988E+03,      /* J = 88 */
(PID.TID 0000.0001)                 2.340800000000017E+03,      /* J = 89 */
(PID.TID 0000.0001)                 2.340799999999988E+03,      /* J = 90 */
(PID.TID 0000.0001)                 2.340800000000017E+03,      /* J = 91 */
(PID.TID 0000.0001)                 2.340799999999988E+03,      /* J = 92 */
(PID.TID 0000.0001)                 2.340700000000012E+03,      /* J = 93 */
(PID.TID 0000.0001)      . . .
(PID.TID 0000.0001)                 2.340799999999988E+03,      /* J =133 */
(PID.TID 0000.0001)                 2.340799999999988E+03,      /* J =134 */
(PID.TID 0000.0001)                 2.340800000000017E+03,      /* J =135 */
(PID.TID 0000.0001)                 2.340799999999988E+03,      /* J =136 */
(PID.TID 0000.0001)                 2.340800000000017E+03,      /* J =137 */
(PID.TID 0000.0001)                 2.340699999999983E+03,      /* J =138 */
(PID.TID 0000.0001)      . . .
(PID.TID 0000.0001)                 2.340799999999988E+03,      /* J =178 */
(PID.TID 0000.0001)                 2.340799999999988E+03,      /* J =179 */
(PID.TID 0000.0001)                 2.340799999999988E+03       /* J =180 */
(PID.TID 0000.0001)     ;
(PID.TID 0000.0001) xgOrigin = /* X-axis origin of West  edge (cartesian: m, lat-lon: deg) */
(PID.TID 0000.0001)                -2.380000000000000E+05
(PID.TID 0000.0001)     ;
(PID.TID 0000.0001) ygOrigin = /* Y-axis origin of South edge (cartesian: m, lat-lon: deg) */
(PID.TID 0000.0001)                -6.200000000000000E+04
(PID.TID 0000.0001)     ;
(PID.TID 0000.0001) rSphere =  /* Radius ( ignored - cartesian, m - spherical ) */
(PID.TID 0000.0001)                 6.370000000000000E+06
(PID.TID 0000.0001)     ;
(PID.TID 0000.0001) deepAtmosphere = /* Deep/Shallow Atmosphere flag (True/False) */
(PID.TID 0000.0001)                   F
(PID.TID 0000.0001)     ;
(PID.TID 0000.0001) xC =  /* xC(:,1,:,1) : P-point X coord ( deg. or m if cartesian) */
(PID.TID 0000.0001)                -2.370042000000000E+05,      /* I =  1 */
(PID.TID 0000.0001)                -2.350125500000000E+05,      /* I =  2 */
(PID.TID 0000.0001)                -2.330209000000000E+05,      /* I =  3 */
(PID.TID 0000.0001)      . . .
(PID.TID 0000.0001)                -1.234812000000000E+05,      /* I = 58 */
(PID.TID 0000.0001)                -1.214895500000000E+05,      /* I = 59 */
(PID.TID 0000.0001)                -1.194979000000000E+05,      /* I = 60 */
(PID.TID 0000.0001)                -1.175063000000000E+05,      /* I = 61 */
(PID.TID 0000.0001)                -1.155146500000000E+05,      /* I = 62 */
(PID.TID 0000.0001)                -1.135230000000000E+05,      /* I = 63 */
(PID.TID 0000.0001)      . . .
(PID.TID 0000.0001)                -3.983250000000000E+03,      /* I =118 */
(PID.TID 0000.0001)                -1.991600000000000E+03,      /* I =119 */
(PID.TID 0000.0001)                 0.000000000000000E+00,      /* I =120 */
(PID.TID 0000.0001)                 1.991600000000000E+03,      /* I =121 */
(PID.TID 0000.0001)                 3.983250000000000E+03,      /* I =122 */
(PID.TID 0000.0001)                 5.974900000000001E+03,      /* I =123 */
(PID.TID 0000.0001)      . . .
(PID.TID 0000.0001)                 1.155146500000000E+05,      /* I =178 */
(PID.TID 0000.0001)                 1.175063000000000E+05,      /* I =179 */
(PID.TID 0000.0001)                 1.194979000000000E+05,      /* I =180 */
(PID.TID 0000.0001)                 1.214895500000000E+05,      /* I =181 */
(PID.TID 0000.0001)                 1.234812000000000E+05,      /* I =182 */
(PID.TID 0000.0001)                 1.254728000000000E+05,      /* I =183 */
(PID.TID 0000.0001)      . . .
(PID.TID 0000.0001)                 2.350125500000000E+05,      /* I =238 */
(PID.TID 0000.0001)                 2.370042000000000E+05,      /* I =239 */
(PID.TID 0000.0001)                 2.389958000000000E+05       /* I =240 */
(PID.TID 0000.0001)     ;
(PID.TID 0000.0001) yC =  /* yC(1,:,1,:) : P-point Y coord ( deg. or m if cartesian) */
(PID.TID 0000.0001)                -6.082960000000001E+04,      /* J =  1 */
(PID.TID 0000.0001)                -5.848880000000000E+04,      /* J =  2 */
(PID.TID 0000.0001)                -5.614805000000000E+04,      /* J =  3 */
(PID.TID 0000.0001)      . . .
(PID.TID 0000.0001)                 3.748320000000000E+04,      /* J = 43 */
(PID.TID 0000.0001)                 3.982400000000000E+04,      /* J = 44 */
(PID.TID 0000.0001)                 4.216480000000000E+04,      /* J = 45 */
(PID.TID 0000.0001)                 4.450560000000000E+04,      /* J = 46 */
(PID.TID 0000.0001)                 4.684639999999999E+04,      /* J = 47 */
(PID.TID 0000.0001)                 4.918715000000000E+04,      /* J = 48 */
(PID.TID 0000.0001)      . . .
(PID.TID 0000.0001)                 1.428184000000000E+05,      /* J = 88 */
(PID.TID 0000.0001)                 1.451592000000000E+05,      /* J = 89 */
(PID.TID 0000.0001)                 1.475000000000000E+05,      /* J = 90 */
(PID.TID 0000.0001)                 1.498408000000000E+05,      /* J = 91 */
(PID.TID 0000.0001)                 1.521816000000000E+05,      /* J = 92 */
(PID.TID 0000.0001)                 1.545223500000000E+05,      /* J = 93 */
(PID.TID 0000.0001)      . . .
(PID.TID 0000.0001)                 2.481536000000000E+05,      /* J =133 */
(PID.TID 0000.0001)                 2.504944000000000E+05,      /* J =134 */
(PID.TID 0000.0001)                 2.528352000000000E+05,      /* J =135 */
(PID.TID 0000.0001)                 2.551760000000000E+05,      /* J =136 */
(PID.TID 0000.0001)                 2.575168000000000E+05,      /* J =137 */
(PID.TID 0000.0001)                 2.598575500000000E+05,      /* J =138 */
(PID.TID 0000.0001)      . . .
(PID.TID 0000.0001)                 3.534888000000000E+05,      /* J =178 */
(PID.TID 0000.0001)                 3.558296000000000E+05,      /* J =179 */
(PID.TID 0000.0001)                 3.581704000000000E+05       /* J =180 */
(PID.TID 0000.0001)     ;
(PID.TID 0000.0001) rcoord = /* P-point R coordinate (  units of r ) */
(PID.TID 0000.0001)                -1.000000000000000E+00,      /* K =  1 */
(PID.TID 0000.0001)                -3.100000000000000E+00,      /* K =  2 */
(PID.TID 0000.0001)                -5.400000000000000E+00,      /* K =  3 */
(PID.TID 0000.0001)                -7.950000000000000E+00,      /* K =  4 */
(PID.TID 0000.0001)                -1.080000000000000E+01,      /* K =  5 */
(PID.TID 0000.0001)                -1.395000000000000E+01,      /* K =  6 */
(PID.TID 0000.0001)                -1.740000000000000E+01,      /* K =  7 */
(PID.TID 0000.0001)                -2.120000000000000E+01,      /* K =  8 */
(PID.TID 0000.0001)                -2.540000000000000E+01,      /* K =  9 */
(PID.TID 0000.0001)                -3.005000000000000E+01,      /* K = 10 */
(PID.TID 0000.0001)                -3.520000000000000E+01,      /* K = 11 */
(PID.TID 0000.0001)                -4.090000000000001E+01,      /* K = 12 */
(PID.TID 0000.0001)                -4.720000000000000E+01,      /* K = 13 */
(PID.TID 0000.0001)                -5.415000000000001E+01,      /* K = 14 */
(PID.TID 0000.0001)                -6.180000000000000E+01,      /* K = 15 */
(PID.TID 0000.0001)                -7.025000000000000E+01,      /* K = 16 */
(PID.TID 0000.0001)                -7.959999999999999E+01,      /* K = 17 */
(PID.TID 0000.0001)                -8.989999999999999E+01,      /* K = 18 */
(PID.TID 0000.0001)                -1.013000000000000E+02,      /* K = 19 */
(PID.TID 0000.0001)                -1.139000000000000E+02,      /* K = 20 */
(PID.TID 0000.0001)                -1.278000000000000E+02,      /* K = 21 */
(PID.TID 0000.0001)                -1.431500000000000E+02,      /* K = 22 */
(PID.TID 0000.0001)                -1.601000000000000E+02,      /* K = 23 */
(PID.TID 0000.0001)                -1.788500000000000E+02,      /* K = 24 */
(PID.TID 0000.0001)                -1.995500000000000E+02,      /* K = 25 */
(PID.TID 0000.0001)                -2.223999999999999E+02,      /* K = 26 */
(PID.TID 0000.0001)                -2.476499999999999E+02,      /* K = 27 */
(PID.TID 0000.0001)                -2.755500000000000E+02,      /* K = 28 */
(PID.TID 0000.0001)                -3.063500000000000E+02,      /* K = 29 */
(PID.TID 0000.0001)                -3.403500000000000E+02,      /* K = 30 */
(PID.TID 0000.0001)                -3.779000000000000E+02,      /* K = 31 */
(PID.TID 0000.0001)                -4.194000000000000E+02,      /* K = 32 */
(PID.TID 0000.0001)                -4.652500000000000E+02,      /* K = 33 */
(PID.TID 0000.0001)                -5.158500000000000E+02,      /* K = 34 */
(PID.TID 0000.0001)                -5.717500000000000E+02,      /* K = 35 */
(PID.TID 0000.0001)                -6.335000000000000E+02,      /* K = 36 */
(PID.TID 0000.0001)                -7.017000000000000E+02,      /* K = 37 */
(PID.TID 0000.0001)                -7.770500000000001E+02,      /* K = 38 */
(PID.TID 0000.0001)                -8.601500000000001E+02,      /* K = 39 */
(PID.TID 0000.0001)                -9.518500000000001E+02       /* K = 40 */
(PID.TID 0000.0001)     ;
(PID.TID 0000.0001) rF =   /* W-Interf. R coordinate (  units of r ) */
(PID.TID 0000.0001)                 0.000000000000000E+00,      /* K =  1 */
(PID.TID 0000.0001)                -2.000000000000000E+00,      /* K =  2 */
(PID.TID 0000.0001)                -4.200000000000000E+00,      /* K =  3 */
(PID.TID 0000.0001)                -6.600000000000000E+00,      /* K =  4 */
(PID.TID 0000.0001)                -9.300000000000001E+00,      /* K =  5 */
(PID.TID 0000.0001)                -1.230000000000000E+01,      /* K =  6 */
(PID.TID 0000.0001)                -1.560000000000000E+01,      /* K =  7 */
(PID.TID 0000.0001)                -1.920000000000000E+01,      /* K =  8 */
(PID.TID 0000.0001)                -2.320000000000000E+01,      /* K =  9 */
(PID.TID 0000.0001)                -2.760000000000000E+01,      /* K = 10 */
(PID.TID 0000.0001)                -3.250000000000000E+01,      /* K = 11 */
(PID.TID 0000.0001)                -3.790000000000000E+01,      /* K = 12 */
(PID.TID 0000.0001)                -4.390000000000000E+01,      /* K = 13 */
(PID.TID 0000.0001)                -5.050000000000000E+01,      /* K = 14 */
(PID.TID 0000.0001)                -5.780000000000000E+01,      /* K = 15 */
(PID.TID 0000.0001)                -6.580000000000000E+01,      /* K = 16 */
(PID.TID 0000.0001)                -7.470000000000000E+01,      /* K = 17 */
(PID.TID 0000.0001)                -8.450000000000000E+01,      /* K = 18 */
(PID.TID 0000.0001)                -9.530000000000000E+01,      /* K = 19 */
(PID.TID 0000.0001)                -1.073000000000000E+02,      /* K = 20 */
(PID.TID 0000.0001)                -1.205000000000000E+02,      /* K = 21 */
(PID.TID 0000.0001)                -1.351000000000000E+02,      /* K = 22 */
(PID.TID 0000.0001)                -1.512000000000000E+02,      /* K = 23 */
(PID.TID 0000.0001)                -1.690000000000000E+02,      /* K = 24 */
(PID.TID 0000.0001)                -1.887000000000000E+02,      /* K = 25 */
(PID.TID 0000.0001)                -2.104000000000000E+02,      /* K = 26 */
(PID.TID 0000.0001)                -2.344000000000000E+02,      /* K = 27 */
(PID.TID 0000.0001)                -2.609000000000000E+02,      /* K = 28 */
(PID.TID 0000.0001)                -2.902000000000000E+02,      /* K = 29 */
(PID.TID 0000.0001)                -3.225000000000000E+02,      /* K = 30 */
(PID.TID 0000.0001)                -3.582000000000000E+02,      /* K = 31 */
(PID.TID 0000.0001)                -3.976000000000000E+02,      /* K = 32 */
(PID.TID 0000.0001)                -4.412000000000000E+02,      /* K = 33 */
(PID.TID 0000.0001)                -4.893000000000000E+02,      /* K = 34 */
(PID.TID 0000.0001)                -5.424000000000000E+02,      /* K = 35 */
(PID.TID 0000.0001)                -6.011000000000000E+02,      /* K = 36 */
(PID.TID 0000.0001)                -6.659000000000000E+02,      /* K = 37 */
(PID.TID 0000.0001)                -7.375000000000000E+02,      /* K = 38 */
(PID.TID 0000.0001)                -8.166000000000000E+02,      /* K = 39 */
(PID.TID 0000.0001)                -9.037000000000000E+02,      /* K = 40 */
(PID.TID 0000.0001)                -1.000000000000000E+03       /* K = 41 */
(PID.TID 0000.0001)     ;
(PID.TID 0000.0001) deepFacC = /* deep-model grid factor @ cell-Center (-) */
(PID.TID 0000.0001)    40 @  1.000000000000000E+00              /* K =  1: 40 */
(PID.TID 0000.0001)     ;
(PID.TID 0000.0001) deepFacF = /* deep-model grid factor @ W-Interface (-) */
(PID.TID 0000.0001)    41 @  1.000000000000000E+00              /* K =  1: 41 */
(PID.TID 0000.0001)     ;
(PID.TID 0000.0001) rotateGrid = /* use rotated grid ( True/False ) */
(PID.TID 0000.0001)                   F
(PID.TID 0000.0001)     ;
(PID.TID 0000.0001) phiEuler = /* Euler angle, rotation about original z-coordinate [rad] */
(PID.TID 0000.0001)                 0.000000000000000E+00
(PID.TID 0000.0001)     ;
(PID.TID 0000.0001) thetaEuler = /* Euler angle, rotation about new x-coordinate [rad] */
(PID.TID 0000.0001)                 0.000000000000000E+00
(PID.TID 0000.0001)     ;
(PID.TID 0000.0001) psiEuler = /* Euler angle, rotation about new z-coordinate [rad] */
(PID.TID 0000.0001)                 0.000000000000000E+00
(PID.TID 0000.0001)     ;
(PID.TID 0000.0001) dxF =  /* dxF(:,1,:,1) ( units: m ) */
(PID.TID 0000.0001)                 1.991600000000006E+03,      /* I =  1 */
(PID.TID 0000.0001)                 1.991699999999983E+03,      /* I =  2 */
(PID.TID 0000.0001)                 1.991600000000006E+03,      /* I =  3 */
(PID.TID 0000.0001)      . . .
(PID.TID 0000.0001)                 1.991600000000006E+03,      /* I = 58 */
(PID.TID 0000.0001)                 1.991699999999997E+03,      /* I = 59 */
(PID.TID 0000.0001)                 1.991599999999991E+03,      /* I = 60 */
(PID.TID 0000.0001)                 1.991600000000006E+03,      /* I = 61 */
(PID.TID 0000.0001)                 1.991699999999997E+03,      /* I = 62 */
(PID.TID 0000.0001)                 1.991600000000006E+03,      /* I = 63 */
(PID.TID 0000.0001)      . . .
(PID.TID 0000.0001)                 1.991700000000000E+03,      /* I =118 */
(PID.TID 0000.0001)                 1.991600000000000E+03,      /* I =119 */
(PID.TID 0000.0001)                 1.991600000000000E+03,      /* I =120 */
(PID.TID 0000.0001)                 1.991600000000000E+03,      /* I =121 */
(PID.TID 0000.0001)                 1.991700000000000E+03,      /* I =122 */
(PID.TID 0000.0001)                 1.991599999999999E+03,      /* I =123 */
(PID.TID 0000.0001)      . . .
(PID.TID 0000.0001)                 1.991699999999997E+03,      /* I =178 */
(PID.TID 0000.0001)                 1.991600000000006E+03,      /* I =179 */
(PID.TID 0000.0001)                 1.991599999999991E+03,      /* I =180 */
(PID.TID 0000.0001)                 1.991699999999997E+03,      /* I =181 */
(PID.TID 0000.0001)                 1.991600000000006E+03,      /* I =182 */
(PID.TID 0000.0001)                 1.991600000000006E+03,      /* I =183 */
(PID.TID 0000.0001)      . . .
(PID.TID 0000.0001)                 1.991699999999983E+03,      /* I =238 */
(PID.TID 0000.0001)                 1.991600000000006E+03,      /* I =239 */
(PID.TID 0000.0001)                 1.991600000000006E+03       /* I =240 */
(PID.TID 0000.0001)     ;
(PID.TID 0000.0001) dxF =  /* dxF(1,:,1,:) ( units: m ) */
(PID.TID 0000.0001)   180 @  1.991600000000006E+03              /* J =  1:180 */
(PID.TID 0000.0001)     ;
(PID.TID 0000.0001) dyF =  /* dyF(:,1,:,1) ( units: m ) */
(PID.TID 0000.0001)   240 @  2.340800000000003E+03              /* I =  1:240 */
(PID.TID 0000.0001)     ;
(PID.TID 0000.0001) dyF =  /* dyF(1,:,1,:) ( units: m ) */
(PID.TID 0000.0001)                 2.340800000000003E+03,      /* J =  1 */
(PID.TID 0000.0001)                 2.340799999999996E+03,      /* J =  2 */
(PID.TID 0000.0001)                 2.340700000000004E+03,      /* J =  3 */
(PID.TID 0000.0001)      . . .
(PID.TID 0000.0001)                 2.340799999999996E+03,      /* J = 43 */
(PID.TID 0000.0001)                 2.340800000000003E+03,      /* J = 44 */
(PID.TID 0000.0001)                 2.340799999999996E+03,      /* J = 45 */
(PID.TID 0000.0001)                 2.340800000000003E+03,      /* J = 46 */
(PID.TID 0000.0001)                 2.340800000000003E+03,      /* J = 47 */
(PID.TID 0000.0001)                 2.340699999999997E+03,      /* J = 48 */
(PID.TID 0000.0001)      . . .
(PID.TID 0000.0001)                 2.340799999999988E+03,      /* J = 88 */
(PID.TID 0000.0001)                 2.340800000000017E+03,      /* J = 89 */
(PID.TID 0000.0001)                 2.340799999999988E+03,      /* J = 90 */
(PID.TID 0000.0001)                 2.340800000000017E+03,      /* J = 91 */
(PID.TID 0000.0001)                 2.340799999999988E+03,      /* J = 92 */
(PID.TID 0000.0001)                 2.340700000000012E+03,      /* J = 93 */
(PID.TID 0000.0001)      . . .
(PID.TID 0000.0001)                 2.340799999999988E+03,      /* J =133 */
(PID.TID 0000.0001)                 2.340799999999988E+03,      /* J =134 */
(PID.TID 0000.0001)                 2.340800000000017E+03,      /* J =135 */
(PID.TID 0000.0001)                 2.340799999999988E+03,      /* J =136 */
(PID.TID 0000.0001)                 2.340800000000017E+03,      /* J =137 */
(PID.TID 0000.0001)                 2.340699999999983E+03,      /* J =138 */
(PID.TID 0000.0001)      . . .
(PID.TID 0000.0001)                 2.340799999999988E+03,      /* J =178 */
(PID.TID 0000.0001)                 2.340799999999988E+03,      /* J =179 */
(PID.TID 0000.0001)                 2.340799999999988E+03       /* J =180 */
(PID.TID 0000.0001)     ;
(PID.TID 0000.0001) dxG =  /* dxG(:,1,:,1) ( units: m ) */
(PID.TID 0000.0001)                 1.991600000000006E+03,      /* I =  1 */
(PID.TID 0000.0001)                 1.991699999999983E+03,      /* I =  2 */
(PID.TID 0000.0001)                 1.991600000000006E+03,      /* I =  3 */
(PID.TID 0000.0001)      . . .
(PID.TID 0000.0001)                 1.991600000000006E+03,      /* I = 58 */
(PID.TID 0000.0001)                 1.991699999999997E+03,      /* I = 59 */
(PID.TID 0000.0001)                 1.991599999999991E+03,      /* I = 60 */
(PID.TID 0000.0001)                 1.991600000000006E+03,      /* I = 61 */
(PID.TID 0000.0001)                 1.991699999999997E+03,      /* I = 62 */
(PID.TID 0000.0001)                 1.991600000000006E+03,      /* I = 63 */
(PID.TID 0000.0001)      . . .
(PID.TID 0000.0001)                 1.991700000000000E+03,      /* I =118 */
(PID.TID 0000.0001)                 1.991600000000000E+03,      /* I =119 */
(PID.TID 0000.0001)                 1.991600000000000E+03,      /* I =120 */
(PID.TID 0000.0001)                 1.991600000000000E+03,      /* I =121 */
(PID.TID 0000.0001)                 1.991700000000000E+03,      /* I =122 */
(PID.TID 0000.0001)                 1.991599999999999E+03,      /* I =123 */
(PID.TID 0000.0001)      . . .
(PID.TID 0000.0001)                 1.991699999999997E+03,      /* I =178 */
(PID.TID 0000.0001)                 1.991600000000006E+03,      /* I =179 */
(PID.TID 0000.0001)                 1.991599999999991E+03,      /* I =180 */
(PID.TID 0000.0001)                 1.991699999999997E+03,      /* I =181 */
(PID.TID 0000.0001)                 1.991600000000006E+03,      /* I =182 */
(PID.TID 0000.0001)                 1.991600000000006E+03,      /* I =183 */
(PID.TID 0000.0001)      . . .
(PID.TID 0000.0001)                 1.991699999999983E+03,      /* I =238 */
(PID.TID 0000.0001)                 1.991600000000006E+03,      /* I =239 */
(PID.TID 0000.0001)                 1.991600000000006E+03       /* I =240 */
(PID.TID 0000.0001)     ;
(PID.TID 0000.0001) dxG =  /* dxG(1,:,1,:) ( units: m ) */
(PID.TID 0000.0001)   180 @  1.991600000000006E+03              /* J =  1:180 */
(PID.TID 0000.0001)     ;
(PID.TID 0000.0001) dyG =  /* dyG(:,1,:,1) ( units: m ) */
(PID.TID 0000.0001)   240 @  2.340800000000003E+03              /* I =  1:240 */
(PID.TID 0000.0001)     ;
(PID.TID 0000.0001) dyG =  /* dyG(1,:,1,:) ( units: m ) */
(PID.TID 0000.0001)                 2.340800000000003E+03,      /* J =  1 */
(PID.TID 0000.0001)                 2.340799999999996E+03,      /* J =  2 */
(PID.TID 0000.0001)                 2.340700000000004E+03,      /* J =  3 */
(PID.TID 0000.0001)      . . .
(PID.TID 0000.0001)                 2.340799999999996E+03,      /* J = 43 */
(PID.TID 0000.0001)                 2.340800000000003E+03,      /* J = 44 */
(PID.TID 0000.0001)                 2.340799999999996E+03,      /* J = 45 */
(PID.TID 0000.0001)                 2.340800000000003E+03,      /* J = 46 */
(PID.TID 0000.0001)                 2.340800000000003E+03,      /* J = 47 */
(PID.TID 0000.0001)                 2.340699999999997E+03,      /* J = 48 */
(PID.TID 0000.0001)      . . .
(PID.TID 0000.0001)                 2.340799999999988E+03,      /* J = 88 */
(PID.TID 0000.0001)                 2.340800000000017E+03,      /* J = 89 */
(PID.TID 0000.0001)                 2.340799999999988E+03,      /* J = 90 */
(PID.TID 0000.0001)                 2.340800000000017E+03,      /* J = 91 */
(PID.TID 0000.0001)                 2.340799999999988E+03,      /* J = 92 */
(PID.TID 0000.0001)                 2.340700000000012E+03,      /* J = 93 */
(PID.TID 0000.0001)      . . .
(PID.TID 0000.0001)                 2.340799999999988E+03,      /* J =133 */
(PID.TID 0000.0001)                 2.340799999999988E+03,      /* J =134 */
(PID.TID 0000.0001)                 2.340800000000017E+03,      /* J =135 */
(PID.TID 0000.0001)                 2.340799999999988E+03,      /* J =136 */
(PID.TID 0000.0001)                 2.340800000000017E+03,      /* J =137 */
(PID.TID 0000.0001)                 2.340699999999983E+03,      /* J =138 */
(PID.TID 0000.0001)      . . .
(PID.TID 0000.0001)                 2.340799999999988E+03,      /* J =178 */
(PID.TID 0000.0001)                 2.340799999999988E+03,      /* J =179 */
(PID.TID 0000.0001)                 2.340799999999988E+03       /* J =180 */
(PID.TID 0000.0001)     ;
(PID.TID 0000.0001) dxC =  /* dxC(:,1,:,1) ( units: m ) */
(PID.TID 0000.0001)                 1.991600000000006E+03,      /* I =  1 */
(PID.TID 0000.0001)                 1.991649999999994E+03,      /* I =  2 */
(PID.TID 0000.0001)                 1.991649999999994E+03,      /* I =  3 */
(PID.TID 0000.0001)      . . .
(PID.TID 0000.0001)                 1.991600000000006E+03,      /* I = 58 */
(PID.TID 0000.0001)                 1.991650000000001E+03,      /* I = 59 */
(PID.TID 0000.0001)                 1.991649999999994E+03,      /* I = 60 */
(PID.TID 0000.0001)                 1.991599999999999E+03,      /* I = 61 */
(PID.TID 0000.0001)                 1.991650000000001E+03,      /* I = 62 */
(PID.TID 0000.0001)                 1.991650000000001E+03,      /* I = 63 */
(PID.TID 0000.0001)      . . .
(PID.TID 0000.0001)                 1.991650000000000E+03,      /* I =118 */
(PID.TID 0000.0001)                 1.991650000000000E+03,      /* I =119 */
(PID.TID 0000.0001)                 1.991600000000000E+03,      /* I =120 */
(PID.TID 0000.0001)                 1.991600000000000E+03,      /* I =121 */
(PID.TID 0000.0001)                 1.991650000000000E+03,      /* I =122 */
(PID.TID 0000.0001)                 1.991650000000000E+03,      /* I =123 */
(PID.TID 0000.0001)      . . .
(PID.TID 0000.0001)                 1.991650000000001E+03,      /* I =178 */
(PID.TID 0000.0001)                 1.991650000000001E+03,      /* I =179 */
(PID.TID 0000.0001)                 1.991599999999999E+03,      /* I =180 */
(PID.TID 0000.0001)                 1.991649999999994E+03,      /* I =181 */
(PID.TID 0000.0001)                 1.991650000000001E+03,      /* I =182 */
(PID.TID 0000.0001)                 1.991600000000006E+03,      /* I =183 */
(PID.TID 0000.0001)      . . .
(PID.TID 0000.0001)                 1.991649999999994E+03,      /* I =238 */
(PID.TID 0000.0001)                 1.991649999999994E+03,      /* I =239 */
(PID.TID 0000.0001)                 1.991600000000006E+03       /* I =240 */
(PID.TID 0000.0001)     ;
(PID.TID 0000.0001) dxC =  /* dxC(1,:,1,:) ( units: m ) */
(PID.TID 0000.0001)   180 @  1.991600000000006E+03              /* J =  1:180 */
(PID.TID 0000.0001)     ;
(PID.TID 0000.0001) dyC =  /* dyC(:,1,:,1) ( units: m ) */
(PID.TID 0000.0001)   240 @  2.340799999999996E+03              /* I =  1:240 */
(PID.TID 0000.0001)     ;
(PID.TID 0000.0001) dyC =  /* dyC(1,:,1,:) ( units: m ) */
(PID.TID 0000.0001)                 2.340799999999996E+03,      /* J =  1 */
(PID.TID 0000.0001)                 2.340799999999999E+03,      /* J =  2 */
(PID.TID 0000.0001)                 2.340750000000000E+03,      /* J =  3 */
(PID.TID 0000.0001)      . . .
(PID.TID 0000.0001)                 2.340750000000000E+03,      /* J = 43 */
(PID.TID 0000.0001)                 2.340799999999999E+03,      /* J = 44 */
(PID.TID 0000.0001)                 2.340799999999999E+03,      /* J = 45 */
(PID.TID 0000.0001)                 2.340799999999999E+03,      /* J = 46 */
(PID.TID 0000.0001)                 2.340800000000003E+03,      /* J = 47 */
(PID.TID 0000.0001)                 2.340750000000000E+03,      /* J = 48 */
(PID.TID 0000.0001)      . . .
(PID.TID 0000.0001)                 2.340750000000000E+03,      /* J = 88 */
(PID.TID 0000.0001)                 2.340800000000003E+03,      /* J = 89 */
(PID.TID 0000.0001)                 2.340800000000003E+03,      /* J = 90 */
(PID.TID 0000.0001)                 2.340800000000003E+03,      /* J = 91 */
(PID.TID 0000.0001)                 2.340800000000003E+03,      /* J = 92 */
(PID.TID 0000.0001)                 2.340750000000000E+03,      /* J = 93 */
(PID.TID 0000.0001)      . . .
(PID.TID 0000.0001)                 2.340750000000000E+03,      /* J =133 */
(PID.TID 0000.0001)                 2.340799999999988E+03,      /* J =134 */
(PID.TID 0000.0001)                 2.340800000000003E+03,      /* J =135 */
(PID.TID 0000.0001)                 2.340800000000003E+03,      /* J =136 */
(PID.TID 0000.0001)                 2.340800000000003E+03,      /* J =137 */
(PID.TID 0000.0001)                 2.340750000000000E+03,      /* J =138 */
(PID.TID 0000.0001)      . . .
(PID.TID 0000.0001)                 2.340750000000000E+03,      /* J =178 */
(PID.TID 0000.0001)                 2.340799999999988E+03,      /* J =179 */
(PID.TID 0000.0001)                 2.340799999999988E+03       /* J =180 */
(PID.TID 0000.0001)     ;
(PID.TID 0000.0001) dxV =  /* dxV(:,1,:,1) ( units: m ) */
(PID.TID 0000.0001)                 1.991600000000006E+03,      /* I =  1 */
(PID.TID 0000.0001)                 1.991649999999994E+03,      /* I =  2 */
(PID.TID 0000.0001)                 1.991649999999994E+03,      /* I =  3 */
(PID.TID 0000.0001)      . . .
(PID.TID 0000.0001)                 1.991600000000006E+03,      /* I = 58 */
(PID.TID 0000.0001)                 1.991650000000001E+03,      /* I = 59 */
(PID.TID 0000.0001)                 1.991649999999994E+03,      /* I = 60 */
(PID.TID 0000.0001)                 1.991599999999999E+03,      /* I = 61 */
(PID.TID 0000.0001)                 1.991650000000001E+03,      /* I = 62 */
(PID.TID 0000.0001)                 1.991650000000001E+03,      /* I = 63 */
(PID.TID 0000.0001)      . . .
(PID.TID 0000.0001)                 1.991650000000000E+03,      /* I =118 */
(PID.TID 0000.0001)                 1.991650000000000E+03,      /* I =119 */
(PID.TID 0000.0001)                 1.991600000000000E+03,      /* I =120 */
(PID.TID 0000.0001)                 1.991600000000000E+03,      /* I =121 */
(PID.TID 0000.0001)                 1.991650000000000E+03,      /* I =122 */
(PID.TID 0000.0001)                 1.991650000000000E+03,      /* I =123 */
(PID.TID 0000.0001)      . . .
(PID.TID 0000.0001)                 1.991650000000001E+03,      /* I =178 */
(PID.TID 0000.0001)                 1.991650000000001E+03,      /* I =179 */
(PID.TID 0000.0001)                 1.991599999999999E+03,      /* I =180 */
(PID.TID 0000.0001)                 1.991649999999994E+03,      /* I =181 */
(PID.TID 0000.0001)                 1.991650000000001E+03,      /* I =182 */
(PID.TID 0000.0001)                 1.991600000000006E+03,      /* I =183 */
(PID.TID 0000.0001)      . . .
(PID.TID 0000.0001)                 1.991649999999994E+03,      /* I =238 */
(PID.TID 0000.0001)                 1.991649999999994E+03,      /* I =239 */
(PID.TID 0000.0001)                 1.991600000000006E+03       /* I =240 */
(PID.TID 0000.0001)     ;
(PID.TID 0000.0001) dxV =  /* dxV(1,:,1,:) ( units: m ) */
(PID.TID 0000.0001)   180 @  1.991600000000006E+03              /* J =  1:180 */
(PID.TID 0000.0001)     ;
(PID.TID 0000.0001) dyU =  /* dyU(:,1,:,1) ( units: m ) */
(PID.TID 0000.0001)   240 @  2.340799999999996E+03              /* I =  1:240 */
(PID.TID 0000.0001)     ;
(PID.TID 0000.0001) dyU =  /* dyU(1,:,1,:) ( units: m ) */
(PID.TID 0000.0001)                 2.340799999999996E+03,      /* J =  1 */
(PID.TID 0000.0001)                 2.340799999999999E+03,      /* J =  2 */
(PID.TID 0000.0001)                 2.340750000000000E+03,      /* J =  3 */
(PID.TID 0000.0001)      . . .
(PID.TID 0000.0001)                 2.340750000000000E+03,      /* J = 43 */
(PID.TID 0000.0001)                 2.340799999999999E+03,      /* J = 44 */
(PID.TID 0000.0001)                 2.340799999999999E+03,      /* J = 45 */
(PID.TID 0000.0001)                 2.340799999999999E+03,      /* J = 46 */
(PID.TID 0000.0001)                 2.340800000000003E+03,      /* J = 47 */
(PID.TID 0000.0001)                 2.340750000000000E+03,      /* J = 48 */
(PID.TID 0000.0001)      . . .
(PID.TID 0000.0001)                 2.340750000000000E+03,      /* J = 88 */
(PID.TID 0000.0001)                 2.340800000000003E+03,      /* J = 89 */
(PID.TID 0000.0001)                 2.340800000000003E+03,      /* J = 90 */
(PID.TID 0000.0001)                 2.340800000000003E+03,      /* J = 91 */
(PID.TID 0000.0001)                 2.340800000000003E+03,      /* J = 92 */
(PID.TID 0000.0001)                 2.340750000000000E+03,      /* J = 93 */
(PID.TID 0000.0001)      . . .
(PID.TID 0000.0001)                 2.340750000000000E+03,      /* J =133 */
(PID.TID 0000.0001)                 2.340799999999988E+03,      /* J =134 */
(PID.TID 0000.0001)                 2.340800000000003E+03,      /* J =135 */
(PID.TID 0000.0001)                 2.340800000000003E+03,      /* J =136 */
(PID.TID 0000.0001)                 2.340800000000003E+03,      /* J =137 */
(PID.TID 0000.0001)                 2.340750000000000E+03,      /* J =138 */
(PID.TID 0000.0001)      . . .
(PID.TID 0000.0001)                 2.340750000000000E+03,      /* J =178 */
(PID.TID 0000.0001)                 2.340799999999988E+03,      /* J =179 */
(PID.TID 0000.0001)                 2.340799999999988E+03       /* J =180 */
(PID.TID 0000.0001)     ;
(PID.TID 0000.0001) rA  =  /* rA (:,1,:,1) ( units: m^2 ) */
(PID.TID 0000.0001)                 4.661937280000020E+06,      /* I =  1 */
(PID.TID 0000.0001)                 4.662171359999965E+06,      /* I =  2 */
(PID.TID 0000.0001)                 4.661937280000020E+06,      /* I =  3 */
(PID.TID 0000.0001)      . . .
(PID.TID 0000.0001)                 4.661937280000020E+06,      /* I = 58 */
(PID.TID 0000.0001)                 4.662171359999999E+06,      /* I = 59 */
(PID.TID 0000.0001)                 4.661937279999985E+06,      /* I = 60 */
(PID.TID 0000.0001)                 4.661937280000020E+06,      /* I = 61 */
(PID.TID 0000.0001)                 4.662171359999999E+06,      /* I = 62 */
(PID.TID 0000.0001)                 4.661937280000020E+06,      /* I = 63 */
(PID.TID 0000.0001)      . . .
(PID.TID 0000.0001)                 4.662171360000007E+06,      /* I =118 */
(PID.TID 0000.0001)                 4.661937280000006E+06,      /* I =119 */
(PID.TID 0000.0001)                 4.661937280000006E+06,      /* I =120 */
(PID.TID 0000.0001)                 4.661937280000006E+06,      /* I =121 */
(PID.TID 0000.0001)                 4.662171360000007E+06,      /* I =122 */
(PID.TID 0000.0001)                 4.661937280000005E+06,      /* I =123 */
(PID.TID 0000.0001)      . . .
(PID.TID 0000.0001)                 4.662171359999999E+06,      /* I =178 */
(PID.TID 0000.0001)                 4.661937280000020E+06,      /* I =179 */
(PID.TID 0000.0001)                 4.661937279999985E+06,      /* I =180 */
(PID.TID 0000.0001)                 4.662171359999999E+06,      /* I =181 */
(PID.TID 0000.0001)                 4.661937280000020E+06,      /* I =182 */
(PID.TID 0000.0001)                 4.661937280000020E+06,      /* I =183 */
(PID.TID 0000.0001)      . . .
(PID.TID 0000.0001)                 4.662171359999965E+06,      /* I =238 */
(PID.TID 0000.0001)                 4.661937280000020E+06,      /* I =239 */
(PID.TID 0000.0001)                 4.661937280000020E+06       /* I =240 */
(PID.TID 0000.0001)     ;
(PID.TID 0000.0001) rA  =  /* rA (1,:,1,:) ( units: m^2 ) */
(PID.TID 0000.0001)                 4.661937280000020E+06,      /* J =  1 */
(PID.TID 0000.0001)                 4.661937280000005E+06,      /* J =  2 */
(PID.TID 0000.0001)                 4.661738120000022E+06,      /* J =  3 */
(PID.TID 0000.0001)      . . .
(PID.TID 0000.0001)                 4.661937280000005E+06,      /* J = 43 */
(PID.TID 0000.0001)                 4.661937280000020E+06,      /* J = 44 */
(PID.TID 0000.0001)                 4.661937280000005E+06,      /* J = 45 */
(PID.TID 0000.0001)                 4.661937280000020E+06,      /* J = 46 */
(PID.TID 0000.0001)                 4.661937280000020E+06,      /* J = 47 */
(PID.TID 0000.0001)                 4.661738120000008E+06,      /* J = 48 */
(PID.TID 0000.0001)      . . .
(PID.TID 0000.0001)                 4.661937279999990E+06,      /* J = 88 */
(PID.TID 0000.0001)                 4.661937280000049E+06,      /* J = 89 */
(PID.TID 0000.0001)                 4.661937279999990E+06,      /* J = 90 */
(PID.TID 0000.0001)                 4.661937280000049E+06,      /* J = 91 */
(PID.TID 0000.0001)                 4.661937279999990E+06,      /* J = 92 */
(PID.TID 0000.0001)                 4.661738120000036E+06,      /* J = 93 */
(PID.TID 0000.0001)      . . .
(PID.TID 0000.0001)                 4.661937279999990E+06,      /* J =133 */
(PID.TID 0000.0001)                 4.661937279999990E+06,      /* J =134 */
(PID.TID 0000.0001)                 4.661937280000049E+06,      /* J =135 */
(PID.TID 0000.0001)                 4.661937279999990E+06,      /* J =136 */
(PID.TID 0000.0001)                 4.661937280000049E+06,      /* J =137 */
(PID.TID 0000.0001)                 4.661738119999979E+06,      /* J =138 */
(PID.TID 0000.0001)      . . .
(PID.TID 0000.0001)                 4.661937279999990E+06,      /* J =178 */
(PID.TID 0000.0001)                 4.661937279999990E+06,      /* J =179 */
(PID.TID 0000.0001)                 4.661937279999990E+06       /* J =180 */
(PID.TID 0000.0001)     ;
(PID.TID 0000.0001) rAw =  /* rAw(:,1,:,1) ( units: m^2 ) */
(PID.TID 0000.0001)                 4.661937280000020E+06,      /* I =  1 */
(PID.TID 0000.0001)                 4.662054319999992E+06,      /* I =  2 */
(PID.TID 0000.0001)                 4.662054319999992E+06,      /* I =  3 */
(PID.TID 0000.0001)      . . .
(PID.TID 0000.0001)                 4.661937280000020E+06,      /* I = 58 */
(PID.TID 0000.0001)                 4.662054320000010E+06,      /* I = 59 */
(PID.TID 0000.0001)                 4.662054319999992E+06,      /* I = 60 */
(PID.TID 0000.0001)                 4.661937280000002E+06,      /* I = 61 */
(PID.TID 0000.0001)                 4.662054320000010E+06,      /* I = 62 */
(PID.TID 0000.0001)                 4.662054320000010E+06,      /* I = 63 */
(PID.TID 0000.0001)      . . .
(PID.TID 0000.0001)                 4.662054320000006E+06,      /* I =118 */
(PID.TID 0000.0001)                 4.662054320000006E+06,      /* I =119 */
(PID.TID 0000.0001)                 4.661937280000006E+06,      /* I =120 */
(PID.TID 0000.0001)                 4.661937280000006E+06,      /* I =121 */
(PID.TID 0000.0001)                 4.662054320000006E+06,      /* I =122 */
(PID.TID 0000.0001)                 4.662054320000006E+06,      /* I =123 */
(PID.TID 0000.0001)      . . .
(PID.TID 0000.0001)                 4.662054320000010E+06,      /* I =178 */
(PID.TID 0000.0001)                 4.662054320000010E+06,      /* I =179 */
(PID.TID 0000.0001)                 4.661937280000002E+06,      /* I =180 */
(PID.TID 0000.0001)                 4.662054319999992E+06,      /* I =181 */
(PID.TID 0000.0001)                 4.662054320000010E+06,      /* I =182 */
(PID.TID 0000.0001)                 4.661937280000020E+06,      /* I =183 */
(PID.TID 0000.0001)      . . .
(PID.TID 0000.0001)                 4.662054319999992E+06,      /* I =238 */
(PID.TID 0000.0001)                 4.662054319999992E+06,      /* I =239 */
(PID.TID 0000.0001)                 4.661937280000020E+06       /* I =240 */
(PID.TID 0000.0001)     ;
(PID.TID 0000.0001) rAw =  /* rAw(1,:,1,:) ( units: m^2 ) */
(PID.TID 0000.0001)                 4.661937280000020E+06,      /* J =  1 */
(PID.TID 0000.0001)                 4.661937280000005E+06,      /* J =  2 */
(PID.TID 0000.0001)                 4.661738120000022E+06,      /* J =  3 */
(PID.TID 0000.0001)      . . .
(PID.TID 0000.0001)                 4.661937280000005E+06,      /* J = 43 */
(PID.TID 0000.0001)                 4.661937280000020E+06,      /* J = 44 */
(PID.TID 0000.0001)                 4.661937280000005E+06,      /* J = 45 */
(PID.TID 0000.0001)                 4.661937280000020E+06,      /* J = 46 */
(PID.TID 0000.0001)                 4.661937280000020E+06,      /* J = 47 */
(PID.TID 0000.0001)                 4.661738120000008E+06,      /* J = 48 */
(PID.TID 0000.0001)      . . .
(PID.TID 0000.0001)                 4.661937279999990E+06,      /* J = 88 */
(PID.TID 0000.0001)                 4.661937280000049E+06,      /* J = 89 */
(PID.TID 0000.0001)                 4.661937279999990E+06,      /* J = 90 */
(PID.TID 0000.0001)                 4.661937280000049E+06,      /* J = 91 */
(PID.TID 0000.0001)                 4.661937279999990E+06,      /* J = 92 */
(PID.TID 0000.0001)                 4.661738120000036E+06,      /* J = 93 */
(PID.TID 0000.0001)      . . .
(PID.TID 0000.0001)                 4.661937279999990E+06,      /* J =133 */
(PID.TID 0000.0001)                 4.661937279999990E+06,      /* J =134 */
(PID.TID 0000.0001)                 4.661937280000049E+06,      /* J =135 */
(PID.TID 0000.0001)                 4.661937279999990E+06,      /* J =136 */
(PID.TID 0000.0001)                 4.661937280000049E+06,      /* J =137 */
(PID.TID 0000.0001)                 4.661738119999979E+06,      /* J =138 */
(PID.TID 0000.0001)      . . .
(PID.TID 0000.0001)                 4.661937279999990E+06,      /* J =178 */
(PID.TID 0000.0001)                 4.661937279999990E+06,      /* J =179 */
(PID.TID 0000.0001)                 4.661937279999990E+06       /* J =180 */
(PID.TID 0000.0001)     ;
(PID.TID 0000.0001) rAs =  /* rAs(:,1,:,1) ( units: m^2 ) */
(PID.TID 0000.0001)                 4.661937280000005E+06,      /* I =  1 */
(PID.TID 0000.0001)                 4.662171359999950E+06,      /* I =  2 */
(PID.TID 0000.0001)                 4.661937280000005E+06,      /* I =  3 */
(PID.TID 0000.0001)      . . .
(PID.TID 0000.0001)                 4.661937280000005E+06,      /* I = 58 */
(PID.TID 0000.0001)                 4.662171359999985E+06,      /* I = 59 */
(PID.TID 0000.0001)                 4.661937279999970E+06,      /* I = 60 */
(PID.TID 0000.0001)                 4.661937280000005E+06,      /* I = 61 */
(PID.TID 0000.0001)                 4.662171359999985E+06,      /* I = 62 */
(PID.TID 0000.0001)                 4.661937280000005E+06,      /* I = 63 */
(PID.TID 0000.0001)      . . .
(PID.TID 0000.0001)                 4.662171359999992E+06,      /* I =118 */
(PID.TID 0000.0001)                 4.661937279999992E+06,      /* I =119 */
(PID.TID 0000.0001)                 4.661937279999991E+06,      /* I =120 */
(PID.TID 0000.0001)                 4.661937279999992E+06,      /* I =121 */
(PID.TID 0000.0001)                 4.662171359999992E+06,      /* I =122 */
(PID.TID 0000.0001)                 4.661937279999990E+06,      /* I =123 */
(PID.TID 0000.0001)      . . .
(PID.TID 0000.0001)                 4.662171359999985E+06,      /* I =178 */
(PID.TID 0000.0001)                 4.661937280000005E+06,      /* I =179 */
(PID.TID 0000.0001)                 4.661937279999970E+06,      /* I =180 */
(PID.TID 0000.0001)                 4.662171359999985E+06,      /* I =181 */
(PID.TID 0000.0001)                 4.661937280000005E+06,      /* I =182 */
(PID.TID 0000.0001)                 4.661937280000005E+06,      /* I =183 */
(PID.TID 0000.0001)      . . .
(PID.TID 0000.0001)                 4.662171359999950E+06,      /* I =238 */
(PID.TID 0000.0001)                 4.661937280000005E+06,      /* I =239 */
(PID.TID 0000.0001)                 4.661937280000005E+06       /* I =240 */
(PID.TID 0000.0001)     ;
(PID.TID 0000.0001) rAs =  /* rAs(1,:,1,:) ( units: m^2 ) */
(PID.TID 0000.0001)                 4.661937280000005E+06,      /* J =  1 */
(PID.TID 0000.0001)                 4.661937280000012E+06,      /* J =  2 */
(PID.TID 0000.0001)                 4.661837700000013E+06,      /* J =  3 */
(PID.TID 0000.0001)      . . .
(PID.TID 0000.0001)                 4.661837700000013E+06,      /* J = 43 */
(PID.TID 0000.0001)                 4.661937280000012E+06,      /* J = 44 */
(PID.TID 0000.0001)                 4.661937280000012E+06,      /* J = 45 */
(PID.TID 0000.0001)                 4.661937280000012E+06,      /* J = 46 */
(PID.TID 0000.0001)                 4.661937280000020E+06,      /* J = 47 */
(PID.TID 0000.0001)                 4.661837700000013E+06,      /* J = 48 */
(PID.TID 0000.0001)      . . .
(PID.TID 0000.0001)                 4.661837700000013E+06,      /* J = 88 */
(PID.TID 0000.0001)                 4.661937280000020E+06,      /* J = 89 */
(PID.TID 0000.0001)                 4.661937280000020E+06,      /* J = 90 */
(PID.TID 0000.0001)                 4.661937280000020E+06,      /* J = 91 */
(PID.TID 0000.0001)                 4.661937280000020E+06,      /* J = 92 */
(PID.TID 0000.0001)                 4.661837700000013E+06,      /* J = 93 */
(PID.TID 0000.0001)      . . .
(PID.TID 0000.0001)                 4.661837700000013E+06,      /* J =133 */
(PID.TID 0000.0001)                 4.661937279999990E+06,      /* J =134 */
(PID.TID 0000.0001)                 4.661937280000020E+06,      /* J =135 */
(PID.TID 0000.0001)                 4.661937280000020E+06,      /* J =136 */
(PID.TID 0000.0001)                 4.661937280000020E+06,      /* J =137 */
(PID.TID 0000.0001)                 4.661837700000013E+06,      /* J =138 */
(PID.TID 0000.0001)      . . .
(PID.TID 0000.0001)                 4.661837700000013E+06,      /* J =178 */
(PID.TID 0000.0001)                 4.661937279999990E+06,      /* J =179 */
(PID.TID 0000.0001)                 4.661937279999990E+06       /* J =180 */
(PID.TID 0000.0001)     ;
(PID.TID 0000.0001) globalArea = /* Integrated horizontal Area (m^2) */
(PID.TID 0000.0001)                 1.590572966179196E+11
(PID.TID 0000.0001)     ;
(PID.TID 0000.0001) // =======================================================
(PID.TID 0000.0001) // End of Model config. summary
(PID.TID 0000.0001) // =======================================================
(PID.TID 0000.0001) 
(PID.TID 0000.0001) == Packages configuration : Check & print summary ==
(PID.TID 0000.0001) 
(PID.TID 0000.0001) OBCS_CHECK: #define ALLOW_OBCS
(PID.TID 0000.0001) // =======================================================
(PID.TID 0000.0001) // OBCS_CHECK: OBCS configuration summary
(PID.TID 0000.0001) // =======================================================
(PID.TID 0000.0001) 
(PID.TID 0000.0001) useOBCSprescribe = /* prescribe OB values */
(PID.TID 0000.0001)                   F
(PID.TID 0000.0001)     ;
(PID.TID 0000.0001) useOBCSbalance = /* balance the flow through OB */
(PID.TID 0000.0001)                   T
(PID.TID 0000.0001)     ;
(PID.TID 0000.0001) OBCSbalanceSurf = /* include surf. flux in balance */
(PID.TID 0000.0001)                   F
(PID.TID 0000.0001)     ;
(PID.TID 0000.0001) OBCS_balanceFacN = /* Northern OB Factor for balancing OB flow [-] */
(PID.TID 0000.0001)                 1.000000000000000E+00
(PID.TID 0000.0001)     ;
(PID.TID 0000.0001) OBCS_balanceFacS = /* Southern OB Factor for balancing OB flow [-] */
(PID.TID 0000.0001)                 1.000000000000000E+00
(PID.TID 0000.0001)     ;
(PID.TID 0000.0001) OBCS_balanceFacE = /* Eastern  OB Factor for balancing OB flow [-] */
(PID.TID 0000.0001)                 1.000000000000000E+00
(PID.TID 0000.0001)     ;
(PID.TID 0000.0001) OBCS_balanceFacW = /* Western  OB Factor for balancing OB flow [-] */
(PID.TID 0000.0001)                 1.000000000000000E+00
(PID.TID 0000.0001)     ;
(PID.TID 0000.0001) OBCSfixTopo =  /* mod. topo to have zero gradient across boundaries. */
(PID.TID 0000.0001)                   F
(PID.TID 0000.0001)     ;
(PID.TID 0000.0001) OBCS_uvApplyFac = /* Factor to apply to U,V 2nd column/row */
(PID.TID 0000.0001)                 1.000000000000000E+00
(PID.TID 0000.0001)     ;
(PID.TID 0000.0001) OBCS_u1_adv_T = /* Temp uses upwind adv-scheme @ OB */
(PID.TID 0000.0001)                       0
(PID.TID 0000.0001)     ;
(PID.TID 0000.0001) OBCS_u1_adv_S = /* Salt uses upwind adv-scheme @ OB */
(PID.TID 0000.0001)                       0
(PID.TID 0000.0001)     ;
(PID.TID 0000.0001) OBCS_monitorFreq = /* monitor output frequency [s] */
(PID.TID 0000.0001)                 1.200000000000000E+03
(PID.TID 0000.0001)     ;
(PID.TID 0000.0001) OBCS_monSelect = /* select group of variables to monitor */
(PID.TID 0000.0001)                       0
(PID.TID 0000.0001)     ;
(PID.TID 0000.0001) OBCSprintDiags =  /* print some OBCS diagnostics. */
(PID.TID 0000.0001)                   F
(PID.TID 0000.0001)     ;
(PID.TID 0000.0001) useOBCStides = /* apply tidal forcing through OB */
(PID.TID 0000.0001)                   F
(PID.TID 0000.0001)     ;
(PID.TID 0000.0001) useOrlanskiNorth =  /* use Orlanski for northern bound. */
(PID.TID 0000.0001)                   F
(PID.TID 0000.0001)     ;
(PID.TID 0000.0001) useOrlanskiSouth =  /* use Orlanski for southern bound. */
(PID.TID 0000.0001)                   T
(PID.TID 0000.0001)     ;
(PID.TID 0000.0001) useOrlanskiEast  =  /* use Orlanski for eastern bound. */
(PID.TID 0000.0001)                   F
(PID.TID 0000.0001)     ;
(PID.TID 0000.0001) useOrlanskiWest  =  /* use Orlanski for western bound. */
(PID.TID 0000.0001)                   F
(PID.TID 0000.0001)     ;
(PID.TID 0000.0001) useStevensNorth =  /* use Stevens for northern bound. */
(PID.TID 0000.0001)                   F
(PID.TID 0000.0001)     ;
(PID.TID 0000.0001) useStevensSouth =  /* use Stevens for southern bound. */
(PID.TID 0000.0001)                   F
(PID.TID 0000.0001)     ;
(PID.TID 0000.0001) useStevensEast  =  /* use Stevens for eastern bound. */
(PID.TID 0000.0001)                   F
(PID.TID 0000.0001)     ;
(PID.TID 0000.0001) useStevensWest  =  /* use Stevens for western bound. */
(PID.TID 0000.0001)                   F
(PID.TID 0000.0001)     ;
(PID.TID 0000.0001) useStevensPhaseVel  =  /* include phase vel. term. */
(PID.TID 0000.0001)                   T
(PID.TID 0000.0001)     ;
(PID.TID 0000.0001) useStevensAdvection  =  /* include advection term. */
(PID.TID 0000.0001)                   T
(PID.TID 0000.0001)     ;
(PID.TID 0000.0001) TrelaxStevens = /* relaxation time scale for theta ( s ). */
(PID.TID 0000.0001)                 0.000000000000000E+00
(PID.TID 0000.0001)     ;
(PID.TID 0000.0001) SrelaxStevens = /* relaxation time scale for salinity ( s ). */
(PID.TID 0000.0001)                 0.000000000000000E+00
(PID.TID 0000.0001)     ;
(PID.TID 0000.0001) useOBCSSponge =  /* use sponge along boundaries */
(PID.TID 0000.0001)                   F
(PID.TID 0000.0001)     ;
(PID.TID 0000.0001) useSeaiceSponge =  /* use sponge for sea ice variables */
(PID.TID 0000.0001)                   F
(PID.TID 0000.0001)     ;
(PID.TID 0000.0001) useSeaiceNeumann =  /* use Neumann conditions for sea ice variables */
(PID.TID 0000.0001)                   F
(PID.TID 0000.0001)     ;
(PID.TID 0000.0001) OB_indexNone = /* null value for OB index (i.e. no OB) */
(PID.TID 0000.0001)                     -99
(PID.TID 0000.0001)     ;
(PID.TID 0000.0001) ======== Tile bi=   1 , bj=   1 ========
(PID.TID 0000.0001)  OB_Jn = /* Northern OB local indices */
(PID.TID 0000.0001)    22 @      -99                            /* I = -2: 19 */
(PID.TID 0000.0001)  OB_Js = /* Southern OB local indices */
(PID.TID 0000.0001)    22 @        1                            /* I = -2: 19 */
(PID.TID 0000.0001)  OB_Ie = /* Eastern OB local indices */
(PID.TID 0000.0001)    18 @      -99                            /* J = -2: 15 */
(PID.TID 0000.0001)  OB_Iw = /* Western OB local indices */
(PID.TID 0000.0001)    18 @      -99                            /* J = -2: 15 */
(PID.TID 0000.0001) ======== Tile bi=   2 , bj=   1 ========
(PID.TID 0000.0001)  OB_Jn = /* Northern OB local indices */
(PID.TID 0000.0001)    22 @      -99                            /* I = -2: 19 */
(PID.TID 0000.0001)  OB_Js = /* Southern OB local indices */
(PID.TID 0000.0001)    22 @        1                            /* I = -2: 19 */
(PID.TID 0000.0001)  OB_Ie = /* Eastern OB local indices */
(PID.TID 0000.0001)    18 @      -99                            /* J = -2: 15 */
(PID.TID 0000.0001)  OB_Iw = /* Western OB local indices */
(PID.TID 0000.0001)    18 @      -99                            /* J = -2: 15 */
(PID.TID 0000.0001) ======== Tile bi=   3 , bj=   1 ========
(PID.TID 0000.0001)  OB_Jn = /* Northern OB local indices */
(PID.TID 0000.0001)    22 @      -99                            /* I = -2: 19 */
(PID.TID 0000.0001)  OB_Js = /* Southern OB local indices */
(PID.TID 0000.0001)    22 @        1                            /* I = -2: 19 */
(PID.TID 0000.0001)  OB_Ie = /* Eastern OB local indices */
(PID.TID 0000.0001)    18 @      -99                            /* J = -2: 15 */
(PID.TID 0000.0001)  OB_Iw = /* Western OB local indices */
(PID.TID 0000.0001)    18 @      -99                            /* J = -2: 15 */
(PID.TID 0000.0001) ======== Tile bi=   4 , bj=   1 ========
(PID.TID 0000.0001)  OB_Jn = /* Northern OB local indices */
(PID.TID 0000.0001)    22 @      -99                            /* I = -2: 19 */
(PID.TID 0000.0001)  OB_Js = /* Southern OB local indices */
(PID.TID 0000.0001)    22 @        1                            /* I = -2: 19 */
(PID.TID 0000.0001)  OB_Ie = /* Eastern OB local indices */
(PID.TID 0000.0001)    18 @      -99                            /* J = -2: 15 */
(PID.TID 0000.0001)  OB_Iw = /* Western OB local indices */
(PID.TID 0000.0001)    18 @      -99                            /* J = -2: 15 */
(PID.TID 0000.0001) ======== Tile bi=   5 , bj=   1 ========
(PID.TID 0000.0001)  OB_Jn = /* Northern OB local indices */
(PID.TID 0000.0001)    22 @      -99                            /* I = -2: 19 */
(PID.TID 0000.0001)  OB_Js = /* Southern OB local indices */
(PID.TID 0000.0001)    22 @        1                            /* I = -2: 19 */
(PID.TID 0000.0001)  OB_Ie = /* Eastern OB local indices */
(PID.TID 0000.0001)    18 @      -99                            /* J = -2: 15 */
(PID.TID 0000.0001)  OB_Iw = /* Western OB local indices */
(PID.TID 0000.0001)    18 @      -99                            /* J = -2: 15 */
(PID.TID 0000.0001) ======== Tile bi=   6 , bj=   1 ========
(PID.TID 0000.0001)  OB_Jn = /* Northern OB local indices */
(PID.TID 0000.0001)    22 @      -99                            /* I = -2: 19 */
(PID.TID 0000.0001)  OB_Js = /* Southern OB local indices */
(PID.TID 0000.0001)    22 @        1                            /* I = -2: 19 */
(PID.TID 0000.0001)  OB_Ie = /* Eastern OB local indices */
(PID.TID 0000.0001)    18 @      -99                            /* J = -2: 15 */
(PID.TID 0000.0001)  OB_Iw = /* Western OB local indices */
(PID.TID 0000.0001)    18 @      -99                            /* J = -2: 15 */
(PID.TID 0000.0001) ======== Tile bi=   7 , bj=   1 ========
(PID.TID 0000.0001)  OB_Jn = /* Northern OB local indices */
(PID.TID 0000.0001)    22 @      -99                            /* I = -2: 19 */
(PID.TID 0000.0001)  OB_Js = /* Southern OB local indices */
(PID.TID 0000.0001)    22 @        1                            /* I = -2: 19 */
(PID.TID 0000.0001)  OB_Ie = /* Eastern OB local indices */
(PID.TID 0000.0001)    18 @      -99                            /* J = -2: 15 */
(PID.TID 0000.0001)  OB_Iw = /* Western OB local indices */
(PID.TID 0000.0001)    18 @      -99                            /* J = -2: 15 */
(PID.TID 0000.0001) ======== Tile bi=   8 , bj=   1 ========
(PID.TID 0000.0001)  OB_Jn = /* Northern OB local indices */
(PID.TID 0000.0001)    22 @      -99                            /* I = -2: 19 */
(PID.TID 0000.0001)  OB_Js = /* Southern OB local indices */
(PID.TID 0000.0001)    22 @        1                            /* I = -2: 19 */
(PID.TID 0000.0001)  OB_Ie = /* Eastern OB local indices */
(PID.TID 0000.0001)    18 @      -99                            /* J = -2: 15 */
(PID.TID 0000.0001)  OB_Iw = /* Western OB local indices */
(PID.TID 0000.0001)    18 @      -99                            /* J = -2: 15 */
(PID.TID 0000.0001) ======== Tile bi=   9 , bj=   1 ========
(PID.TID 0000.0001)  OB_Jn = /* Northern OB local indices */
(PID.TID 0000.0001)    22 @      -99                            /* I = -2: 19 */
(PID.TID 0000.0001)  OB_Js = /* Southern OB local indices */
(PID.TID 0000.0001)    22 @        1                            /* I = -2: 19 */
(PID.TID 0000.0001)  OB_Ie = /* Eastern OB local indices */
(PID.TID 0000.0001)    18 @      -99                            /* J = -2: 15 */
(PID.TID 0000.0001)  OB_Iw = /* Western OB local indices */
(PID.TID 0000.0001)    18 @      -99                            /* J = -2: 15 */
(PID.TID 0000.0001) ======== Tile bi=  10 , bj=   1 ========
(PID.TID 0000.0001)  OB_Jn = /* Northern OB local indices */
(PID.TID 0000.0001)    22 @      -99                            /* I = -2: 19 */
(PID.TID 0000.0001)  OB_Js = /* Southern OB local indices */
(PID.TID 0000.0001)    22 @        1                            /* I = -2: 19 */
(PID.TID 0000.0001)  OB_Ie = /* Eastern OB local indices */
(PID.TID 0000.0001)    18 @      -99                            /* J = -2: 15 */
(PID.TID 0000.0001)  OB_Iw = /* Western OB local indices */
(PID.TID 0000.0001)    18 @      -99                            /* J = -2: 15 */
(PID.TID 0000.0001) ======== Tile bi=  11 , bj=   1 ========
(PID.TID 0000.0001)  OB_Jn = /* Northern OB local indices */
(PID.TID 0000.0001)    22 @      -99                            /* I = -2: 19 */
(PID.TID 0000.0001)  OB_Js = /* Southern OB local indices */
(PID.TID 0000.0001)    22 @        1                            /* I = -2: 19 */
(PID.TID 0000.0001)  OB_Ie = /* Eastern OB local indices */
(PID.TID 0000.0001)    18 @      -99                            /* J = -2: 15 */
(PID.TID 0000.0001)  OB_Iw = /* Western OB local indices */
(PID.TID 0000.0001)    18 @      -99                            /* J = -2: 15 */
(PID.TID 0000.0001) ======== Tile bi=  12 , bj=   1 ========
(PID.TID 0000.0001)  OB_Jn = /* Northern OB local indices */
(PID.TID 0000.0001)    22 @      -99                            /* I = -2: 19 */
(PID.TID 0000.0001)  OB_Js = /* Southern OB local indices */
(PID.TID 0000.0001)    22 @        1                            /* I = -2: 19 */
(PID.TID 0000.0001)  OB_Ie = /* Eastern OB local indices */
(PID.TID 0000.0001)    18 @      -99                            /* J = -2: 15 */
(PID.TID 0000.0001)  OB_Iw = /* Western OB local indices */
(PID.TID 0000.0001)    18 @      -99                            /* J = -2: 15 */
(PID.TID 0000.0001) ======== Tile bi=  13 , bj=   1 ========
(PID.TID 0000.0001)  OB_Jn = /* Northern OB local indices */
(PID.TID 0000.0001)    22 @      -99                            /* I = -2: 19 */
(PID.TID 0000.0001)  OB_Js = /* Southern OB local indices */
(PID.TID 0000.0001)    22 @        1                            /* I = -2: 19 */
(PID.TID 0000.0001)  OB_Ie = /* Eastern OB local indices */
(PID.TID 0000.0001)    18 @      -99                            /* J = -2: 15 */
(PID.TID 0000.0001)  OB_Iw = /* Western OB local indices */
(PID.TID 0000.0001)    18 @      -99                            /* J = -2: 15 */
(PID.TID 0000.0001) ======== Tile bi=  14 , bj=   1 ========
(PID.TID 0000.0001)  OB_Jn = /* Northern OB local indices */
(PID.TID 0000.0001)    22 @      -99                            /* I = -2: 19 */
(PID.TID 0000.0001)  OB_Js = /* Southern OB local indices */
(PID.TID 0000.0001)    22 @        1                            /* I = -2: 19 */
(PID.TID 0000.0001)  OB_Ie = /* Eastern OB local indices */
(PID.TID 0000.0001)    18 @      -99                            /* J = -2: 15 */
(PID.TID 0000.0001)  OB_Iw = /* Western OB local indices */
(PID.TID 0000.0001)    18 @      -99                            /* J = -2: 15 */
(PID.TID 0000.0001) ======== Tile bi=  15 , bj=   1 ========
(PID.TID 0000.0001)  OB_Jn = /* Northern OB local indices */
(PID.TID 0000.0001)    22 @      -99                            /* I = -2: 19 */
(PID.TID 0000.0001)  OB_Js = /* Southern OB local indices */
(PID.TID 0000.0001)    22 @        1                            /* I = -2: 19 */
(PID.TID 0000.0001)  OB_Ie = /* Eastern OB local indices */
(PID.TID 0000.0001)    18 @      -99                            /* J = -2: 15 */
(PID.TID 0000.0001)  OB_Iw = /* Western OB local indices */
(PID.TID 0000.0001)    18 @      -99                            /* J = -2: 15 */
(PID.TID 0000.0001) ======== Tile bi=   1 , bj=   2 ========
(PID.TID 0000.0001)  OB_Jn = /* Northern OB local indices */
(PID.TID 0000.0001)    22 @      -99                            /* I = -2: 19 */
(PID.TID 0000.0001)  OB_Js = /* Southern OB local indices */
(PID.TID 0000.0001)    22 @      -99                            /* I = -2: 19 */
(PID.TID 0000.0001)  OB_Ie = /* Eastern OB local indices */
(PID.TID 0000.0001)    18 @      -99                            /* J = -2: 15 */
(PID.TID 0000.0001)  OB_Iw = /* Western OB local indices */
(PID.TID 0000.0001)    18 @      -99                            /* J = -2: 15 */
(PID.TID 0000.0001) ======== Tile bi=   2 , bj=   2 ========
(PID.TID 0000.0001)  OB_Jn = /* Northern OB local indices */
(PID.TID 0000.0001)    22 @      -99                            /* I = -2: 19 */
(PID.TID 0000.0001)  OB_Js = /* Southern OB local indices */
(PID.TID 0000.0001)    22 @      -99                            /* I = -2: 19 */
(PID.TID 0000.0001)  OB_Ie = /* Eastern OB local indices */
(PID.TID 0000.0001)    18 @      -99                            /* J = -2: 15 */
(PID.TID 0000.0001)  OB_Iw = /* Western OB local indices */
(PID.TID 0000.0001)    18 @      -99                            /* J = -2: 15 */
(PID.TID 0000.0001) ======== Tile bi=   3 , bj=   2 ========
(PID.TID 0000.0001)  OB_Jn = /* Northern OB local indices */
(PID.TID 0000.0001)    22 @      -99                            /* I = -2: 19 */
(PID.TID 0000.0001)  OB_Js = /* Southern OB local indices */
(PID.TID 0000.0001)    22 @      -99                            /* I = -2: 19 */
(PID.TID 0000.0001)  OB_Ie = /* Eastern OB local indices */
(PID.TID 0000.0001)    18 @      -99                            /* J = -2: 15 */
(PID.TID 0000.0001)  OB_Iw = /* Western OB local indices */
(PID.TID 0000.0001)    18 @      -99                            /* J = -2: 15 */
(PID.TID 0000.0001) ======== Tile bi=   4 , bj=   2 ========
(PID.TID 0000.0001)  OB_Jn = /* Northern OB local indices */
(PID.TID 0000.0001)    22 @      -99                            /* I = -2: 19 */
(PID.TID 0000.0001)  OB_Js = /* Southern OB local indices */
(PID.TID 0000.0001)    22 @      -99                            /* I = -2: 19 */
(PID.TID 0000.0001)  OB_Ie = /* Eastern OB local indices */
(PID.TID 0000.0001)    18 @      -99                            /* J = -2: 15 */
(PID.TID 0000.0001)  OB_Iw = /* Western OB local indices */
(PID.TID 0000.0001)    18 @      -99                            /* J = -2: 15 */
(PID.TID 0000.0001) ======== Tile bi=   5 , bj=   2 ========
(PID.TID 0000.0001)  OB_Jn = /* Northern OB local indices */
(PID.TID 0000.0001)    22 @      -99                            /* I = -2: 19 */
(PID.TID 0000.0001)  OB_Js = /* Southern OB local indices */
(PID.TID 0000.0001)    22 @      -99                            /* I = -2: 19 */
(PID.TID 0000.0001)  OB_Ie = /* Eastern OB local indices */
(PID.TID 0000.0001)    18 @      -99                            /* J = -2: 15 */
(PID.TID 0000.0001)  OB_Iw = /* Western OB local indices */
(PID.TID 0000.0001)    18 @      -99                            /* J = -2: 15 */
(PID.TID 0000.0001) ======== Tile bi=   6 , bj=   2 ========
(PID.TID 0000.0001)  OB_Jn = /* Northern OB local indices */
(PID.TID 0000.0001)    22 @      -99                            /* I = -2: 19 */
(PID.TID 0000.0001)  OB_Js = /* Southern OB local indices */
(PID.TID 0000.0001)    22 @      -99                            /* I = -2: 19 */
(PID.TID 0000.0001)  OB_Ie = /* Eastern OB local indices */
(PID.TID 0000.0001)    18 @      -99                            /* J = -2: 15 */
(PID.TID 0000.0001)  OB_Iw = /* Western OB local indices */
(PID.TID 0000.0001)    18 @      -99                            /* J = -2: 15 */
(PID.TID 0000.0001) ======== Tile bi=   7 , bj=   2 ========
(PID.TID 0000.0001)  OB_Jn = /* Northern OB local indices */
(PID.TID 0000.0001)    22 @      -99                            /* I = -2: 19 */
(PID.TID 0000.0001)  OB_Js = /* Southern OB local indices */
(PID.TID 0000.0001)    22 @      -99                            /* I = -2: 19 */
(PID.TID 0000.0001)  OB_Ie = /* Eastern OB local indices */
(PID.TID 0000.0001)    18 @      -99                            /* J = -2: 15 */
(PID.TID 0000.0001)  OB_Iw = /* Western OB local indices */
(PID.TID 0000.0001)    18 @      -99                            /* J = -2: 15 */
(PID.TID 0000.0001) ======== Tile bi=   8 , bj=   2 ========
(PID.TID 0000.0001)  OB_Jn = /* Northern OB local indices */
(PID.TID 0000.0001)    22 @      -99                            /* I = -2: 19 */
(PID.TID 0000.0001)  OB_Js = /* Southern OB local indices */
(PID.TID 0000.0001)    22 @      -99                            /* I = -2: 19 */
(PID.TID 0000.0001)  OB_Ie = /* Eastern OB local indices */
(PID.TID 0000.0001)    18 @      -99                            /* J = -2: 15 */
(PID.TID 0000.0001)  OB_Iw = /* Western OB local indices */
(PID.TID 0000.0001)    18 @      -99                            /* J = -2: 15 */
(PID.TID 0000.0001) ======== Tile bi=   9 , bj=   2 ========
(PID.TID 0000.0001)  OB_Jn = /* Northern OB local indices */
(PID.TID 0000.0001)    22 @      -99                            /* I = -2: 19 */
(PID.TID 0000.0001)  OB_Js = /* Southern OB local indices */
(PID.TID 0000.0001)    22 @      -99                            /* I = -2: 19 */
(PID.TID 0000.0001)  OB_Ie = /* Eastern OB local indices */
(PID.TID 0000.0001)    18 @      -99                            /* J = -2: 15 */
(PID.TID 0000.0001)  OB_Iw = /* Western OB local indices */
(PID.TID 0000.0001)    18 @      -99                            /* J = -2: 15 */
(PID.TID 0000.0001) ======== Tile bi=  10 , bj=   2 ========
(PID.TID 0000.0001)  OB_Jn = /* Northern OB local indices */
(PID.TID 0000.0001)    22 @      -99                            /* I = -2: 19 */
(PID.TID 0000.0001)  OB_Js = /* Southern OB local indices */
(PID.TID 0000.0001)    22 @      -99                            /* I = -2: 19 */
(PID.TID 0000.0001)  OB_Ie = /* Eastern OB local indices */
(PID.TID 0000.0001)    18 @      -99                            /* J = -2: 15 */
(PID.TID 0000.0001)  OB_Iw = /* Western OB local indices */
(PID.TID 0000.0001)    18 @      -99                            /* J = -2: 15 */
(PID.TID 0000.0001) ======== Tile bi=  11 , bj=   2 ========
(PID.TID 0000.0001)  OB_Jn = /* Northern OB local indices */
(PID.TID 0000.0001)    22 @      -99                            /* I = -2: 19 */
(PID.TID 0000.0001)  OB_Js = /* Southern OB local indices */
(PID.TID 0000.0001)    22 @      -99                            /* I = -2: 19 */
(PID.TID 0000.0001)  OB_Ie = /* Eastern OB local indices */
(PID.TID 0000.0001)    18 @      -99                            /* J = -2: 15 */
(PID.TID 0000.0001)  OB_Iw = /* Western OB local indices */
(PID.TID 0000.0001)    18 @      -99                            /* J = -2: 15 */
(PID.TID 0000.0001) ======== Tile bi=  12 , bj=   2 ========
(PID.TID 0000.0001)  OB_Jn = /* Northern OB local indices */
(PID.TID 0000.0001)    22 @      -99                            /* I = -2: 19 */
(PID.TID 0000.0001)  OB_Js = /* Southern OB local indices */
(PID.TID 0000.0001)    22 @      -99                            /* I = -2: 19 */
(PID.TID 0000.0001)  OB_Ie = /* Eastern OB local indices */
(PID.TID 0000.0001)    18 @      -99                            /* J = -2: 15 */
(PID.TID 0000.0001)  OB_Iw = /* Western OB local indices */
(PID.TID 0000.0001)    18 @      -99                            /* J = -2: 15 */
(PID.TID 0000.0001) ======== Tile bi=  13 , bj=   2 ========
(PID.TID 0000.0001)  OB_Jn = /* Northern OB local indices */
(PID.TID 0000.0001)    22 @      -99                            /* I = -2: 19 */
(PID.TID 0000.0001)  OB_Js = /* Southern OB local indices */
(PID.TID 0000.0001)    22 @      -99                            /* I = -2: 19 */
(PID.TID 0000.0001)  OB_Ie = /* Eastern OB local indices */
(PID.TID 0000.0001)    18 @      -99                            /* J = -2: 15 */
(PID.TID 0000.0001)  OB_Iw = /* Western OB local indices */
(PID.TID 0000.0001)    18 @      -99                            /* J = -2: 15 */
(PID.TID 0000.0001) ======== Tile bi=  14 , bj=   2 ========
(PID.TID 0000.0001)  OB_Jn = /* Northern OB local indices */
(PID.TID 0000.0001)    22 @      -99                            /* I = -2: 19 */
(PID.TID 0000.0001)  OB_Js = /* Southern OB local indices */
(PID.TID 0000.0001)    22 @      -99                            /* I = -2: 19 */
(PID.TID 0000.0001)  OB_Ie = /* Eastern OB local indices */
(PID.TID 0000.0001)    18 @      -99                            /* J = -2: 15 */
(PID.TID 0000.0001)  OB_Iw = /* Western OB local indices */
(PID.TID 0000.0001)    18 @      -99                            /* J = -2: 15 */
(PID.TID 0000.0001) ======== Tile bi=  15 , bj=   2 ========
(PID.TID 0000.0001)  OB_Jn = /* Northern OB local indices */
(PID.TID 0000.0001)    22 @      -99                            /* I = -2: 19 */
(PID.TID 0000.0001)  OB_Js = /* Southern OB local indices */
(PID.TID 0000.0001)    22 @      -99                            /* I = -2: 19 */
(PID.TID 0000.0001)  OB_Ie = /* Eastern OB local indices */
(PID.TID 0000.0001)    18 @      -99                            /* J = -2: 15 */
(PID.TID 0000.0001)  OB_Iw = /* Western OB local indices */
(PID.TID 0000.0001)    18 @      -99                            /* J = -2: 15 */
(PID.TID 0000.0001) ======== Tile bi=   1 , bj=   3 ========
(PID.TID 0000.0001)  OB_Jn = /* Northern OB local indices */
(PID.TID 0000.0001)    22 @      -99                            /* I = -2: 19 */
(PID.TID 0000.0001)  OB_Js = /* Southern OB local indices */
(PID.TID 0000.0001)    22 @      -99                            /* I = -2: 19 */
(PID.TID 0000.0001)  OB_Ie = /* Eastern OB local indices */
(PID.TID 0000.0001)    18 @      -99                            /* J = -2: 15 */
(PID.TID 0000.0001)  OB_Iw = /* Western OB local indices */
(PID.TID 0000.0001)    18 @      -99                            /* J = -2: 15 */
(PID.TID 0000.0001) ======== Tile bi=   2 , bj=   3 ========
(PID.TID 0000.0001)  OB_Jn = /* Northern OB local indices */
(PID.TID 0000.0001)    22 @      -99                            /* I = -2: 19 */
(PID.TID 0000.0001)  OB_Js = /* Southern OB local indices */
(PID.TID 0000.0001)    22 @      -99                            /* I = -2: 19 */
(PID.TID 0000.0001)  OB_Ie = /* Eastern OB local indices */
(PID.TID 0000.0001)    18 @      -99                            /* J = -2: 15 */
(PID.TID 0000.0001)  OB_Iw = /* Western OB local indices */
(PID.TID 0000.0001)    18 @      -99                            /* J = -2: 15 */
(PID.TID 0000.0001) ======== Tile bi=   3 , bj=   3 ========
(PID.TID 0000.0001)  OB_Jn = /* Northern OB local indices */
(PID.TID 0000.0001)    22 @      -99                            /* I = -2: 19 */
(PID.TID 0000.0001)  OB_Js = /* Southern OB local indices */
(PID.TID 0000.0001)    22 @      -99                            /* I = -2: 19 */
(PID.TID 0000.0001)  OB_Ie = /* Eastern OB local indices */
(PID.TID 0000.0001)    18 @      -99                            /* J = -2: 15 */
(PID.TID 0000.0001)  OB_Iw = /* Western OB local indices */
(PID.TID 0000.0001)    18 @      -99                            /* J = -2: 15 */
(PID.TID 0000.0001) ======== Tile bi=   4 , bj=   3 ========
(PID.TID 0000.0001)  OB_Jn = /* Northern OB local indices */
(PID.TID 0000.0001)    22 @      -99                            /* I = -2: 19 */
(PID.TID 0000.0001)  OB_Js = /* Southern OB local indices */
(PID.TID 0000.0001)    22 @      -99                            /* I = -2: 19 */
(PID.TID 0000.0001)  OB_Ie = /* Eastern OB local indices */
(PID.TID 0000.0001)    18 @      -99                            /* J = -2: 15 */
(PID.TID 0000.0001)  OB_Iw = /* Western OB local indices */
(PID.TID 0000.0001)    18 @      -99                            /* J = -2: 15 */
(PID.TID 0000.0001) ======== Tile bi=   5 , bj=   3 ========
(PID.TID 0000.0001)  OB_Jn = /* Northern OB local indices */
(PID.TID 0000.0001)    22 @      -99                            /* I = -2: 19 */
(PID.TID 0000.0001)  OB_Js = /* Southern OB local indices */
(PID.TID 0000.0001)    22 @      -99                            /* I = -2: 19 */
(PID.TID 0000.0001)  OB_Ie = /* Eastern OB local indices */
(PID.TID 0000.0001)    18 @      -99                            /* J = -2: 15 */
(PID.TID 0000.0001)  OB_Iw = /* Western OB local indices */
(PID.TID 0000.0001)    18 @      -99                            /* J = -2: 15 */
(PID.TID 0000.0001) ======== Tile bi=   6 , bj=   3 ========
(PID.TID 0000.0001)  OB_Jn = /* Northern OB local indices */
(PID.TID 0000.0001)    22 @      -99                            /* I = -2: 19 */
(PID.TID 0000.0001)  OB_Js = /* Southern OB local indices */
(PID.TID 0000.0001)    22 @      -99                            /* I = -2: 19 */
(PID.TID 0000.0001)  OB_Ie = /* Eastern OB local indices */
(PID.TID 0000.0001)    18 @      -99                            /* J = -2: 15 */
(PID.TID 0000.0001)  OB_Iw = /* Western OB local indices */
(PID.TID 0000.0001)    18 @      -99                            /* J = -2: 15 */
(PID.TID 0000.0001) ======== Tile bi=   7 , bj=   3 ========
(PID.TID 0000.0001)  OB_Jn = /* Northern OB local indices */
(PID.TID 0000.0001)    22 @      -99                            /* I = -2: 19 */
(PID.TID 0000.0001)  OB_Js = /* Southern OB local indices */
(PID.TID 0000.0001)    22 @      -99                            /* I = -2: 19 */
(PID.TID 0000.0001)  OB_Ie = /* Eastern OB local indices */
(PID.TID 0000.0001)    18 @      -99                            /* J = -2: 15 */
(PID.TID 0000.0001)  OB_Iw = /* Western OB local indices */
(PID.TID 0000.0001)    18 @      -99                            /* J = -2: 15 */
(PID.TID 0000.0001) ======== Tile bi=   8 , bj=   3 ========
(PID.TID 0000.0001)  OB_Jn = /* Northern OB local indices */
(PID.TID 0000.0001)    22 @      -99                            /* I = -2: 19 */
(PID.TID 0000.0001)  OB_Js = /* Southern OB local indices */
(PID.TID 0000.0001)    22 @      -99                            /* I = -2: 19 */
(PID.TID 0000.0001)  OB_Ie = /* Eastern OB local indices */
(PID.TID 0000.0001)    18 @      -99                            /* J = -2: 15 */
(PID.TID 0000.0001)  OB_Iw = /* Western OB local indices */
(PID.TID 0000.0001)    18 @      -99                            /* J = -2: 15 */
(PID.TID 0000.0001) ======== Tile bi=   9 , bj=   3 ========
(PID.TID 0000.0001)  OB_Jn = /* Northern OB local indices */
(PID.TID 0000.0001)    22 @      -99                            /* I = -2: 19 */
(PID.TID 0000.0001)  OB_Js = /* Southern OB local indices */
(PID.TID 0000.0001)    22 @      -99                            /* I = -2: 19 */
(PID.TID 0000.0001)  OB_Ie = /* Eastern OB local indices */
(PID.TID 0000.0001)    18 @      -99                            /* J = -2: 15 */
(PID.TID 0000.0001)  OB_Iw = /* Western OB local indices */
(PID.TID 0000.0001)    18 @      -99                            /* J = -2: 15 */
(PID.TID 0000.0001) ======== Tile bi=  10 , bj=   3 ========
(PID.TID 0000.0001)  OB_Jn = /* Northern OB local indices */
(PID.TID 0000.0001)    22 @      -99                            /* I = -2: 19 */
(PID.TID 0000.0001)  OB_Js = /* Southern OB local indices */
(PID.TID 0000.0001)    22 @      -99                            /* I = -2: 19 */
(PID.TID 0000.0001)  OB_Ie = /* Eastern OB local indices */
(PID.TID 0000.0001)    18 @      -99                            /* J = -2: 15 */
(PID.TID 0000.0001)  OB_Iw = /* Western OB local indices */
(PID.TID 0000.0001)    18 @      -99                            /* J = -2: 15 */
(PID.TID 0000.0001) ======== Tile bi=  11 , bj=   3 ========
(PID.TID 0000.0001)  OB_Jn = /* Northern OB local indices */
(PID.TID 0000.0001)    22 @      -99                            /* I = -2: 19 */
(PID.TID 0000.0001)  OB_Js = /* Southern OB local indices */
(PID.TID 0000.0001)    22 @      -99                            /* I = -2: 19 */
(PID.TID 0000.0001)  OB_Ie = /* Eastern OB local indices */
(PID.TID 0000.0001)    18 @      -99                            /* J = -2: 15 */
(PID.TID 0000.0001)  OB_Iw = /* Western OB local indices */
(PID.TID 0000.0001)    18 @      -99                            /* J = -2: 15 */
(PID.TID 0000.0001) ======== Tile bi=  12 , bj=   3 ========
(PID.TID 0000.0001)  OB_Jn = /* Northern OB local indices */
(PID.TID 0000.0001)    22 @      -99                            /* I = -2: 19 */
(PID.TID 0000.0001)  OB_Js = /* Southern OB local indices */
(PID.TID 0000.0001)    22 @      -99                            /* I = -2: 19 */
(PID.TID 0000.0001)  OB_Ie = /* Eastern OB local indices */
(PID.TID 0000.0001)    18 @      -99                            /* J = -2: 15 */
(PID.TID 0000.0001)  OB_Iw = /* Western OB local indices */
(PID.TID 0000.0001)    18 @      -99                            /* J = -2: 15 */
(PID.TID 0000.0001) ======== Tile bi=  13 , bj=   3 ========
(PID.TID 0000.0001)  OB_Jn = /* Northern OB local indices */
(PID.TID 0000.0001)    22 @      -99                            /* I = -2: 19 */
(PID.TID 0000.0001)  OB_Js = /* Southern OB local indices */
(PID.TID 0000.0001)    22 @      -99                            /* I = -2: 19 */
(PID.TID 0000.0001)  OB_Ie = /* Eastern OB local indices */
(PID.TID 0000.0001)    18 @      -99                            /* J = -2: 15 */
(PID.TID 0000.0001)  OB_Iw = /* Western OB local indices */
(PID.TID 0000.0001)    18 @      -99                            /* J = -2: 15 */
(PID.TID 0000.0001) ======== Tile bi=  14 , bj=   3 ========
(PID.TID 0000.0001)  OB_Jn = /* Northern OB local indices */
(PID.TID 0000.0001)    22 @      -99                            /* I = -2: 19 */
(PID.TID 0000.0001)  OB_Js = /* Southern OB local indices */
(PID.TID 0000.0001)    22 @      -99                            /* I = -2: 19 */
(PID.TID 0000.0001)  OB_Ie = /* Eastern OB local indices */
(PID.TID 0000.0001)    18 @      -99                            /* J = -2: 15 */
(PID.TID 0000.0001)  OB_Iw = /* Western OB local indices */
(PID.TID 0000.0001)    18 @      -99                            /* J = -2: 15 */
(PID.TID 0000.0001) ======== Tile bi=  15 , bj=   3 ========
(PID.TID 0000.0001)  OB_Jn = /* Northern OB local indices */
(PID.TID 0000.0001)    22 @      -99                            /* I = -2: 19 */
(PID.TID 0000.0001)  OB_Js = /* Southern OB local indices */
(PID.TID 0000.0001)    22 @      -99                            /* I = -2: 19 */
(PID.TID 0000.0001)  OB_Ie = /* Eastern OB local indices */
(PID.TID 0000.0001)    18 @      -99                            /* J = -2: 15 */
(PID.TID 0000.0001)  OB_Iw = /* Western OB local indices */
(PID.TID 0000.0001)    18 @      -99                            /* J = -2: 15 */
(PID.TID 0000.0001) ======== Tile bi=   1 , bj=   4 ========
(PID.TID 0000.0001)  OB_Jn = /* Northern OB local indices */
(PID.TID 0000.0001)    22 @      -99                            /* I = -2: 19 */
(PID.TID 0000.0001)  OB_Js = /* Southern OB local indices */
(PID.TID 0000.0001)    22 @      -99                            /* I = -2: 19 */
(PID.TID 0000.0001)  OB_Ie = /* Eastern OB local indices */
(PID.TID 0000.0001)    18 @      -99                            /* J = -2: 15 */
(PID.TID 0000.0001)  OB_Iw = /* Western OB local indices */
(PID.TID 0000.0001)    18 @      -99                            /* J = -2: 15 */
(PID.TID 0000.0001) ======== Tile bi=   2 , bj=   4 ========
(PID.TID 0000.0001)  OB_Jn = /* Northern OB local indices */
(PID.TID 0000.0001)    22 @      -99                            /* I = -2: 19 */
(PID.TID 0000.0001)  OB_Js = /* Southern OB local indices */
(PID.TID 0000.0001)    22 @      -99                            /* I = -2: 19 */
(PID.TID 0000.0001)  OB_Ie = /* Eastern OB local indices */
(PID.TID 0000.0001)    18 @      -99                            /* J = -2: 15 */
(PID.TID 0000.0001)  OB_Iw = /* Western OB local indices */
(PID.TID 0000.0001)    18 @      -99                            /* J = -2: 15 */
(PID.TID 0000.0001) ======== Tile bi=   3 , bj=   4 ========
(PID.TID 0000.0001)  OB_Jn = /* Northern OB local indices */
(PID.TID 0000.0001)    22 @      -99                            /* I = -2: 19 */
(PID.TID 0000.0001)  OB_Js = /* Southern OB local indices */
(PID.TID 0000.0001)    22 @      -99                            /* I = -2: 19 */
(PID.TID 0000.0001)  OB_Ie = /* Eastern OB local indices */
(PID.TID 0000.0001)    18 @      -99                            /* J = -2: 15 */
(PID.TID 0000.0001)  OB_Iw = /* Western OB local indices */
(PID.TID 0000.0001)    18 @      -99                            /* J = -2: 15 */
(PID.TID 0000.0001) ======== Tile bi=   4 , bj=   4 ========
(PID.TID 0000.0001)  OB_Jn = /* Northern OB local indices */
(PID.TID 0000.0001)    22 @      -99                            /* I = -2: 19 */
(PID.TID 0000.0001)  OB_Js = /* Southern OB local indices */
(PID.TID 0000.0001)    22 @      -99                            /* I = -2: 19 */
(PID.TID 0000.0001)  OB_Ie = /* Eastern OB local indices */
(PID.TID 0000.0001)    18 @      -99                            /* J = -2: 15 */
(PID.TID 0000.0001)  OB_Iw = /* Western OB local indices */
(PID.TID 0000.0001)    18 @      -99                            /* J = -2: 15 */
(PID.TID 0000.0001) ======== Tile bi=   5 , bj=   4 ========
(PID.TID 0000.0001)  OB_Jn = /* Northern OB local indices */
(PID.TID 0000.0001)    22 @      -99                            /* I = -2: 19 */
(PID.TID 0000.0001)  OB_Js = /* Southern OB local indices */
(PID.TID 0000.0001)    22 @      -99                            /* I = -2: 19 */
(PID.TID 0000.0001)  OB_Ie = /* Eastern OB local indices */
(PID.TID 0000.0001)    18 @      -99                            /* J = -2: 15 */
(PID.TID 0000.0001)  OB_Iw = /* Western OB local indices */
(PID.TID 0000.0001)    18 @      -99                            /* J = -2: 15 */
(PID.TID 0000.0001) ======== Tile bi=   6 , bj=   4 ========
(PID.TID 0000.0001)  OB_Jn = /* Northern OB local indices */
(PID.TID 0000.0001)    22 @      -99                            /* I = -2: 19 */
(PID.TID 0000.0001)  OB_Js = /* Southern OB local indices */
(PID.TID 0000.0001)    22 @      -99                            /* I = -2: 19 */
(PID.TID 0000.0001)  OB_Ie = /* Eastern OB local indices */
(PID.TID 0000.0001)    18 @      -99                            /* J = -2: 15 */
(PID.TID 0000.0001)  OB_Iw = /* Western OB local indices */
(PID.TID 0000.0001)    18 @      -99                            /* J = -2: 15 */
(PID.TID 0000.0001) ======== Tile bi=   7 , bj=   4 ========
(PID.TID 0000.0001)  OB_Jn = /* Northern OB local indices */
(PID.TID 0000.0001)    22 @      -99                            /* I = -2: 19 */
(PID.TID 0000.0001)  OB_Js = /* Southern OB local indices */
(PID.TID 0000.0001)    22 @      -99                            /* I = -2: 19 */
(PID.TID 0000.0001)  OB_Ie = /* Eastern OB local indices */
(PID.TID 0000.0001)    18 @      -99                            /* J = -2: 15 */
(PID.TID 0000.0001)  OB_Iw = /* Western OB local indices */
(PID.TID 0000.0001)    18 @      -99                            /* J = -2: 15 */
(PID.TID 0000.0001) ======== Tile bi=   8 , bj=   4 ========
(PID.TID 0000.0001)  OB_Jn = /* Northern OB local indices */
(PID.TID 0000.0001)    22 @      -99                            /* I = -2: 19 */
(PID.TID 0000.0001)  OB_Js = /* Southern OB local indices */
(PID.TID 0000.0001)    22 @      -99                            /* I = -2: 19 */
(PID.TID 0000.0001)  OB_Ie = /* Eastern OB local indices */
(PID.TID 0000.0001)    18 @      -99                            /* J = -2: 15 */
(PID.TID 0000.0001)  OB_Iw = /* Western OB local indices */
(PID.TID 0000.0001)    18 @      -99                            /* J = -2: 15 */
(PID.TID 0000.0001) ======== Tile bi=   9 , bj=   4 ========
(PID.TID 0000.0001)  OB_Jn = /* Northern OB local indices */
(PID.TID 0000.0001)    22 @      -99                            /* I = -2: 19 */
(PID.TID 0000.0001)  OB_Js = /* Southern OB local indices */
(PID.TID 0000.0001)    22 @      -99                            /* I = -2: 19 */
(PID.TID 0000.0001)  OB_Ie = /* Eastern OB local indices */
(PID.TID 0000.0001)    18 @      -99                            /* J = -2: 15 */
(PID.TID 0000.0001)  OB_Iw = /* Western OB local indices */
(PID.TID 0000.0001)    18 @      -99                            /* J = -2: 15 */
(PID.TID 0000.0001) ======== Tile bi=  10 , bj=   4 ========
(PID.TID 0000.0001)  OB_Jn = /* Northern OB local indices */
(PID.TID 0000.0001)    22 @      -99                            /* I = -2: 19 */
(PID.TID 0000.0001)  OB_Js = /* Southern OB local indices */
(PID.TID 0000.0001)    22 @      -99                            /* I = -2: 19 */
(PID.TID 0000.0001)  OB_Ie = /* Eastern OB local indices */
(PID.TID 0000.0001)    18 @      -99                            /* J = -2: 15 */
(PID.TID 0000.0001)  OB_Iw = /* Western OB local indices */
(PID.TID 0000.0001)    18 @      -99                            /* J = -2: 15 */
(PID.TID 0000.0001) ======== Tile bi=  11 , bj=   4 ========
(PID.TID 0000.0001)  OB_Jn = /* Northern OB local indices */
(PID.TID 0000.0001)    22 @      -99                            /* I = -2: 19 */
(PID.TID 0000.0001)  OB_Js = /* Southern OB local indices */
(PID.TID 0000.0001)    22 @      -99                            /* I = -2: 19 */
(PID.TID 0000.0001)  OB_Ie = /* Eastern OB local indices */
(PID.TID 0000.0001)    18 @      -99                            /* J = -2: 15 */
(PID.TID 0000.0001)  OB_Iw = /* Western OB local indices */
(PID.TID 0000.0001)    18 @      -99                            /* J = -2: 15 */
(PID.TID 0000.0001) ======== Tile bi=  12 , bj=   4 ========
(PID.TID 0000.0001)  OB_Jn = /* Northern OB local indices */
(PID.TID 0000.0001)    22 @      -99                            /* I = -2: 19 */
(PID.TID 0000.0001)  OB_Js = /* Southern OB local indices */
(PID.TID 0000.0001)    22 @      -99                            /* I = -2: 19 */
(PID.TID 0000.0001)  OB_Ie = /* Eastern OB local indices */
(PID.TID 0000.0001)    18 @      -99                            /* J = -2: 15 */
(PID.TID 0000.0001)  OB_Iw = /* Western OB local indices */
(PID.TID 0000.0001)    18 @      -99                            /* J = -2: 15 */
(PID.TID 0000.0001) ======== Tile bi=  13 , bj=   4 ========
(PID.TID 0000.0001)  OB_Jn = /* Northern OB local indices */
(PID.TID 0000.0001)    22 @      -99                            /* I = -2: 19 */
(PID.TID 0000.0001)  OB_Js = /* Southern OB local indices */
(PID.TID 0000.0001)    22 @      -99                            /* I = -2: 19 */
(PID.TID 0000.0001)  OB_Ie = /* Eastern OB local indices */
(PID.TID 0000.0001)    18 @      -99                            /* J = -2: 15 */
(PID.TID 0000.0001)  OB_Iw = /* Western OB local indices */
(PID.TID 0000.0001)    18 @      -99                            /* J = -2: 15 */
(PID.TID 0000.0001) ======== Tile bi=  14 , bj=   4 ========
(PID.TID 0000.0001)  OB_Jn = /* Northern OB local indices */
(PID.TID 0000.0001)    22 @      -99                            /* I = -2: 19 */
(PID.TID 0000.0001)  OB_Js = /* Southern OB local indices */
(PID.TID 0000.0001)    22 @      -99                            /* I = -2: 19 */
(PID.TID 0000.0001)  OB_Ie = /* Eastern OB local indices */
(PID.TID 0000.0001)    18 @      -99                            /* J = -2: 15 */
(PID.TID 0000.0001)  OB_Iw = /* Western OB local indices */
(PID.TID 0000.0001)    18 @      -99                            /* J = -2: 15 */
(PID.TID 0000.0001) ======== Tile bi=  15 , bj=   4 ========
(PID.TID 0000.0001)  OB_Jn = /* Northern OB local indices */
(PID.TID 0000.0001)    22 @      -99                            /* I = -2: 19 */
(PID.TID 0000.0001)  OB_Js = /* Southern OB local indices */
(PID.TID 0000.0001)    22 @      -99                            /* I = -2: 19 */
(PID.TID 0000.0001)  OB_Ie = /* Eastern OB local indices */
(PID.TID 0000.0001)    18 @      -99                            /* J = -2: 15 */
(PID.TID 0000.0001)  OB_Iw = /* Western OB local indices */
(PID.TID 0000.0001)    18 @      -99                            /* J = -2: 15 */
(PID.TID 0000.0001) ======== Tile bi=   1 , bj=   5 ========
(PID.TID 0000.0001)  OB_Jn = /* Northern OB local indices */
(PID.TID 0000.0001)    22 @      -99                            /* I = -2: 19 */
(PID.TID 0000.0001)  OB_Js = /* Southern OB local indices */
(PID.TID 0000.0001)    22 @      -99                            /* I = -2: 19 */
(PID.TID 0000.0001)  OB_Ie = /* Eastern OB local indices */
(PID.TID 0000.0001)    18 @      -99                            /* J = -2: 15 */
(PID.TID 0000.0001)  OB_Iw = /* Western OB local indices */
(PID.TID 0000.0001)    18 @      -99                            /* J = -2: 15 */
(PID.TID 0000.0001) ======== Tile bi=   2 , bj=   5 ========
(PID.TID 0000.0001)  OB_Jn = /* Northern OB local indices */
(PID.TID 0000.0001)    22 @      -99                            /* I = -2: 19 */
(PID.TID 0000.0001)  OB_Js = /* Southern OB local indices */
(PID.TID 0000.0001)    22 @      -99                            /* I = -2: 19 */
(PID.TID 0000.0001)  OB_Ie = /* Eastern OB local indices */
(PID.TID 0000.0001)    18 @      -99                            /* J = -2: 15 */
(PID.TID 0000.0001)  OB_Iw = /* Western OB local indices */
(PID.TID 0000.0001)    18 @      -99                            /* J = -2: 15 */
(PID.TID 0000.0001) ======== Tile bi=   3 , bj=   5 ========
(PID.TID 0000.0001)  OB_Jn = /* Northern OB local indices */
(PID.TID 0000.0001)    22 @      -99                            /* I = -2: 19 */
(PID.TID 0000.0001)  OB_Js = /* Southern OB local indices */
(PID.TID 0000.0001)    22 @      -99                            /* I = -2: 19 */
(PID.TID 0000.0001)  OB_Ie = /* Eastern OB local indices */
(PID.TID 0000.0001)    18 @      -99                            /* J = -2: 15 */
(PID.TID 0000.0001)  OB_Iw = /* Western OB local indices */
(PID.TID 0000.0001)    18 @      -99                            /* J = -2: 15 */
(PID.TID 0000.0001) ======== Tile bi=   4 , bj=   5 ========
(PID.TID 0000.0001)  OB_Jn = /* Northern OB local indices */
(PID.TID 0000.0001)    22 @      -99                            /* I = -2: 19 */
(PID.TID 0000.0001)  OB_Js = /* Southern OB local indices */
(PID.TID 0000.0001)    22 @      -99                            /* I = -2: 19 */
(PID.TID 0000.0001)  OB_Ie = /* Eastern OB local indices */
(PID.TID 0000.0001)    18 @      -99                            /* J = -2: 15 */
(PID.TID 0000.0001)  OB_Iw = /* Western OB local indices */
(PID.TID 0000.0001)    18 @      -99                            /* J = -2: 15 */
(PID.TID 0000.0001) ======== Tile bi=   5 , bj=   5 ========
(PID.TID 0000.0001)  OB_Jn = /* Northern OB local indices */
(PID.TID 0000.0001)    22 @      -99                            /* I = -2: 19 */
(PID.TID 0000.0001)  OB_Js = /* Southern OB local indices */
(PID.TID 0000.0001)    22 @      -99                            /* I = -2: 19 */
(PID.TID 0000.0001)  OB_Ie = /* Eastern OB local indices */
(PID.TID 0000.0001)    18 @      -99                            /* J = -2: 15 */
(PID.TID 0000.0001)  OB_Iw = /* Western OB local indices */
(PID.TID 0000.0001)    18 @      -99                            /* J = -2: 15 */
(PID.TID 0000.0001) ======== Tile bi=   6 , bj=   5 ========
(PID.TID 0000.0001)  OB_Jn = /* Northern OB local indices */
(PID.TID 0000.0001)    22 @      -99                            /* I = -2: 19 */
(PID.TID 0000.0001)  OB_Js = /* Southern OB local indices */
(PID.TID 0000.0001)    22 @      -99                            /* I = -2: 19 */
(PID.TID 0000.0001)  OB_Ie = /* Eastern OB local indices */
(PID.TID 0000.0001)    18 @      -99                            /* J = -2: 15 */
(PID.TID 0000.0001)  OB_Iw = /* Western OB local indices */
(PID.TID 0000.0001)    18 @      -99                            /* J = -2: 15 */
(PID.TID 0000.0001) ======== Tile bi=   7 , bj=   5 ========
(PID.TID 0000.0001)  OB_Jn = /* Northern OB local indices */
(PID.TID 0000.0001)    22 @      -99                            /* I = -2: 19 */
(PID.TID 0000.0001)  OB_Js = /* Southern OB local indices */
(PID.TID 0000.0001)    22 @      -99                            /* I = -2: 19 */
(PID.TID 0000.0001)  OB_Ie = /* Eastern OB local indices */
(PID.TID 0000.0001)    18 @      -99                            /* J = -2: 15 */
(PID.TID 0000.0001)  OB_Iw = /* Western OB local indices */
(PID.TID 0000.0001)    18 @      -99                            /* J = -2: 15 */
(PID.TID 0000.0001) ======== Tile bi=   8 , bj=   5 ========
(PID.TID 0000.0001)  OB_Jn = /* Northern OB local indices */
(PID.TID 0000.0001)    22 @      -99                            /* I = -2: 19 */
(PID.TID 0000.0001)  OB_Js = /* Southern OB local indices */
(PID.TID 0000.0001)    22 @      -99                            /* I = -2: 19 */
(PID.TID 0000.0001)  OB_Ie = /* Eastern OB local indices */
(PID.TID 0000.0001)    18 @      -99                            /* J = -2: 15 */
(PID.TID 0000.0001)  OB_Iw = /* Western OB local indices */
(PID.TID 0000.0001)    18 @      -99                            /* J = -2: 15 */
(PID.TID 0000.0001) ======== Tile bi=   9 , bj=   5 ========
(PID.TID 0000.0001)  OB_Jn = /* Northern OB local indices */
(PID.TID 0000.0001)    22 @      -99                            /* I = -2: 19 */
(PID.TID 0000.0001)  OB_Js = /* Southern OB local indices */
(PID.TID 0000.0001)    22 @      -99                            /* I = -2: 19 */
(PID.TID 0000.0001)  OB_Ie = /* Eastern OB local indices */
(PID.TID 0000.0001)    18 @      -99                            /* J = -2: 15 */
(PID.TID 0000.0001)  OB_Iw = /* Western OB local indices */
(PID.TID 0000.0001)    18 @      -99                            /* J = -2: 15 */
(PID.TID 0000.0001) ======== Tile bi=  10 , bj=   5 ========
(PID.TID 0000.0001)  OB_Jn = /* Northern OB local indices */
(PID.TID 0000.0001)    22 @      -99                            /* I = -2: 19 */
(PID.TID 0000.0001)  OB_Js = /* Southern OB local indices */
(PID.TID 0000.0001)    22 @      -99                            /* I = -2: 19 */
(PID.TID 0000.0001)  OB_Ie = /* Eastern OB local indices */
(PID.TID 0000.0001)    18 @      -99                            /* J = -2: 15 */
(PID.TID 0000.0001)  OB_Iw = /* Western OB local indices */
(PID.TID 0000.0001)    18 @      -99                            /* J = -2: 15 */
(PID.TID 0000.0001) ======== Tile bi=  11 , bj=   5 ========
(PID.TID 0000.0001)  OB_Jn = /* Northern OB local indices */
(PID.TID 0000.0001)    22 @      -99                            /* I = -2: 19 */
(PID.TID 0000.0001)  OB_Js = /* Southern OB local indices */
(PID.TID 0000.0001)    22 @      -99                            /* I = -2: 19 */
(PID.TID 0000.0001)  OB_Ie = /* Eastern OB local indices */
(PID.TID 0000.0001)    18 @      -99                            /* J = -2: 15 */
(PID.TID 0000.0001)  OB_Iw = /* Western OB local indices */
(PID.TID 0000.0001)    18 @      -99                            /* J = -2: 15 */
(PID.TID 0000.0001) ======== Tile bi=  12 , bj=   5 ========
(PID.TID 0000.0001)  OB_Jn = /* Northern OB local indices */
(PID.TID 0000.0001)    22 @      -99                            /* I = -2: 19 */
(PID.TID 0000.0001)  OB_Js = /* Southern OB local indices */
(PID.TID 0000.0001)    22 @      -99                            /* I = -2: 19 */
(PID.TID 0000.0001)  OB_Ie = /* Eastern OB local indices */
(PID.TID 0000.0001)    18 @      -99                            /* J = -2: 15 */
(PID.TID 0000.0001)  OB_Iw = /* Western OB local indices */
(PID.TID 0000.0001)    18 @      -99                            /* J = -2: 15 */
(PID.TID 0000.0001) ======== Tile bi=  13 , bj=   5 ========
(PID.TID 0000.0001)  OB_Jn = /* Northern OB local indices */
(PID.TID 0000.0001)    22 @      -99                            /* I = -2: 19 */
(PID.TID 0000.0001)  OB_Js = /* Southern OB local indices */
(PID.TID 0000.0001)    22 @      -99                            /* I = -2: 19 */
(PID.TID 0000.0001)  OB_Ie = /* Eastern OB local indices */
(PID.TID 0000.0001)    18 @      -99                            /* J = -2: 15 */
(PID.TID 0000.0001)  OB_Iw = /* Western OB local indices */
(PID.TID 0000.0001)    18 @      -99                            /* J = -2: 15 */
(PID.TID 0000.0001) ======== Tile bi=  14 , bj=   5 ========
(PID.TID 0000.0001)  OB_Jn = /* Northern OB local indices */
(PID.TID 0000.0001)    22 @      -99                            /* I = -2: 19 */
(PID.TID 0000.0001)  OB_Js = /* Southern OB local indices */
(PID.TID 0000.0001)    22 @      -99                            /* I = -2: 19 */
(PID.TID 0000.0001)  OB_Ie = /* Eastern OB local indices */
(PID.TID 0000.0001)    18 @      -99                            /* J = -2: 15 */
(PID.TID 0000.0001)  OB_Iw = /* Western OB local indices */
(PID.TID 0000.0001)    18 @      -99                            /* J = -2: 15 */
(PID.TID 0000.0001) ======== Tile bi=  15 , bj=   5 ========
(PID.TID 0000.0001)  OB_Jn = /* Northern OB local indices */
(PID.TID 0000.0001)    22 @      -99                            /* I = -2: 19 */
(PID.TID 0000.0001)  OB_Js = /* Southern OB local indices */
(PID.TID 0000.0001)    22 @      -99                            /* I = -2: 19 */
(PID.TID 0000.0001)  OB_Ie = /* Eastern OB local indices */
(PID.TID 0000.0001)    18 @      -99                            /* J = -2: 15 */
(PID.TID 0000.0001)  OB_Iw = /* Western OB local indices */
(PID.TID 0000.0001)    18 @      -99                            /* J = -2: 15 */
(PID.TID 0000.0001) ======== Tile bi=   1 , bj=   6 ========
(PID.TID 0000.0001)  OB_Jn = /* Northern OB local indices */
(PID.TID 0000.0001)    22 @      -99                            /* I = -2: 19 */
(PID.TID 0000.0001)  OB_Js = /* Southern OB local indices */
(PID.TID 0000.0001)    22 @      -99                            /* I = -2: 19 */
(PID.TID 0000.0001)  OB_Ie = /* Eastern OB local indices */
(PID.TID 0000.0001)    18 @      -99                            /* J = -2: 15 */
(PID.TID 0000.0001)  OB_Iw = /* Western OB local indices */
(PID.TID 0000.0001)    18 @      -99                            /* J = -2: 15 */
(PID.TID 0000.0001) ======== Tile bi=   2 , bj=   6 ========
(PID.TID 0000.0001)  OB_Jn = /* Northern OB local indices */
(PID.TID 0000.0001)    22 @      -99                            /* I = -2: 19 */
(PID.TID 0000.0001)  OB_Js = /* Southern OB local indices */
(PID.TID 0000.0001)    22 @      -99                            /* I = -2: 19 */
(PID.TID 0000.0001)  OB_Ie = /* Eastern OB local indices */
(PID.TID 0000.0001)    18 @      -99                            /* J = -2: 15 */
(PID.TID 0000.0001)  OB_Iw = /* Western OB local indices */
(PID.TID 0000.0001)    18 @      -99                            /* J = -2: 15 */
(PID.TID 0000.0001) ======== Tile bi=   3 , bj=   6 ========
(PID.TID 0000.0001)  OB_Jn = /* Northern OB local indices */
(PID.TID 0000.0001)    22 @      -99                            /* I = -2: 19 */
(PID.TID 0000.0001)  OB_Js = /* Southern OB local indices */
(PID.TID 0000.0001)    22 @      -99                            /* I = -2: 19 */
(PID.TID 0000.0001)  OB_Ie = /* Eastern OB local indices */
(PID.TID 0000.0001)    18 @      -99                            /* J = -2: 15 */
(PID.TID 0000.0001)  OB_Iw = /* Western OB local indices */
(PID.TID 0000.0001)    18 @      -99                            /* J = -2: 15 */
(PID.TID 0000.0001) ======== Tile bi=   4 , bj=   6 ========
(PID.TID 0000.0001)  OB_Jn = /* Northern OB local indices */
(PID.TID 0000.0001)    22 @      -99                            /* I = -2: 19 */
(PID.TID 0000.0001)  OB_Js = /* Southern OB local indices */
(PID.TID 0000.0001)    22 @      -99                            /* I = -2: 19 */
(PID.TID 0000.0001)  OB_Ie = /* Eastern OB local indices */
(PID.TID 0000.0001)    18 @      -99                            /* J = -2: 15 */
(PID.TID 0000.0001)  OB_Iw = /* Western OB local indices */
(PID.TID 0000.0001)    18 @      -99                            /* J = -2: 15 */
(PID.TID 0000.0001) ======== Tile bi=   5 , bj=   6 ========
(PID.TID 0000.0001)  OB_Jn = /* Northern OB local indices */
(PID.TID 0000.0001)    22 @      -99                            /* I = -2: 19 */
(PID.TID 0000.0001)  OB_Js = /* Southern OB local indices */
(PID.TID 0000.0001)    22 @      -99                            /* I = -2: 19 */
(PID.TID 0000.0001)  OB_Ie = /* Eastern OB local indices */
(PID.TID 0000.0001)    18 @      -99                            /* J = -2: 15 */
(PID.TID 0000.0001)  OB_Iw = /* Western OB local indices */
(PID.TID 0000.0001)    18 @      -99                            /* J = -2: 15 */
(PID.TID 0000.0001) ======== Tile bi=   6 , bj=   6 ========
(PID.TID 0000.0001)  OB_Jn = /* Northern OB local indices */
(PID.TID 0000.0001)    22 @      -99                            /* I = -2: 19 */
(PID.TID 0000.0001)  OB_Js = /* Southern OB local indices */
(PID.TID 0000.0001)    22 @      -99                            /* I = -2: 19 */
(PID.TID 0000.0001)  OB_Ie = /* Eastern OB local indices */
(PID.TID 0000.0001)    18 @      -99                            /* J = -2: 15 */
(PID.TID 0000.0001)  OB_Iw = /* Western OB local indices */
(PID.TID 0000.0001)    18 @      -99                            /* J = -2: 15 */
(PID.TID 0000.0001) ======== Tile bi=   7 , bj=   6 ========
(PID.TID 0000.0001)  OB_Jn = /* Northern OB local indices */
(PID.TID 0000.0001)    22 @      -99                            /* I = -2: 19 */
(PID.TID 0000.0001)  OB_Js = /* Southern OB local indices */
(PID.TID 0000.0001)    22 @      -99                            /* I = -2: 19 */
(PID.TID 0000.0001)  OB_Ie = /* Eastern OB local indices */
(PID.TID 0000.0001)    18 @      -99                            /* J = -2: 15 */
(PID.TID 0000.0001)  OB_Iw = /* Western OB local indices */
(PID.TID 0000.0001)    18 @      -99                            /* J = -2: 15 */
(PID.TID 0000.0001) ======== Tile bi=   8 , bj=   6 ========
(PID.TID 0000.0001)  OB_Jn = /* Northern OB local indices */
(PID.TID 0000.0001)    22 @      -99                            /* I = -2: 19 */
(PID.TID 0000.0001)  OB_Js = /* Southern OB local indices */
(PID.TID 0000.0001)    22 @      -99                            /* I = -2: 19 */
(PID.TID 0000.0001)  OB_Ie = /* Eastern OB local indices */
(PID.TID 0000.0001)    18 @      -99                            /* J = -2: 15 */
(PID.TID 0000.0001)  OB_Iw = /* Western OB local indices */
(PID.TID 0000.0001)    18 @      -99                            /* J = -2: 15 */
(PID.TID 0000.0001) ======== Tile bi=   9 , bj=   6 ========
(PID.TID 0000.0001)  OB_Jn = /* Northern OB local indices */
(PID.TID 0000.0001)    22 @      -99                            /* I = -2: 19 */
(PID.TID 0000.0001)  OB_Js = /* Southern OB local indices */
(PID.TID 0000.0001)    22 @      -99                            /* I = -2: 19 */
(PID.TID 0000.0001)  OB_Ie = /* Eastern OB local indices */
(PID.TID 0000.0001)    18 @      -99                            /* J = -2: 15 */
(PID.TID 0000.0001)  OB_Iw = /* Western OB local indices */
(PID.TID 0000.0001)    18 @      -99                            /* J = -2: 15 */
(PID.TID 0000.0001) ======== Tile bi=  10 , bj=   6 ========
(PID.TID 0000.0001)  OB_Jn = /* Northern OB local indices */
(PID.TID 0000.0001)    22 @      -99                            /* I = -2: 19 */
(PID.TID 0000.0001)  OB_Js = /* Southern OB local indices */
(PID.TID 0000.0001)    22 @      -99                            /* I = -2: 19 */
(PID.TID 0000.0001)  OB_Ie = /* Eastern OB local indices */
(PID.TID 0000.0001)    18 @      -99                            /* J = -2: 15 */
(PID.TID 0000.0001)  OB_Iw = /* Western OB local indices */
(PID.TID 0000.0001)    18 @      -99                            /* J = -2: 15 */
(PID.TID 0000.0001) ======== Tile bi=  11 , bj=   6 ========
(PID.TID 0000.0001)  OB_Jn = /* Northern OB local indices */
(PID.TID 0000.0001)    22 @      -99                            /* I = -2: 19 */
(PID.TID 0000.0001)  OB_Js = /* Southern OB local indices */
(PID.TID 0000.0001)    22 @      -99                            /* I = -2: 19 */
(PID.TID 0000.0001)  OB_Ie = /* Eastern OB local indices */
(PID.TID 0000.0001)    18 @      -99                            /* J = -2: 15 */
(PID.TID 0000.0001)  OB_Iw = /* Western OB local indices */
(PID.TID 0000.0001)    18 @      -99                            /* J = -2: 15 */
(PID.TID 0000.0001) ======== Tile bi=  12 , bj=   6 ========
(PID.TID 0000.0001)  OB_Jn = /* Northern OB local indices */
(PID.TID 0000.0001)    22 @      -99                            /* I = -2: 19 */
(PID.TID 0000.0001)  OB_Js = /* Southern OB local indices */
(PID.TID 0000.0001)    22 @      -99                            /* I = -2: 19 */
(PID.TID 0000.0001)  OB_Ie = /* Eastern OB local indices */
(PID.TID 0000.0001)    18 @      -99                            /* J = -2: 15 */
(PID.TID 0000.0001)  OB_Iw = /* Western OB local indices */
(PID.TID 0000.0001)    18 @      -99                            /* J = -2: 15 */
(PID.TID 0000.0001) ======== Tile bi=  13 , bj=   6 ========
(PID.TID 0000.0001)  OB_Jn = /* Northern OB local indices */
(PID.TID 0000.0001)    22 @      -99                            /* I = -2: 19 */
(PID.TID 0000.0001)  OB_Js = /* Southern OB local indices */
(PID.TID 0000.0001)    22 @      -99                            /* I = -2: 19 */
(PID.TID 0000.0001)  OB_Ie = /* Eastern OB local indices */
(PID.TID 0000.0001)    18 @      -99                            /* J = -2: 15 */
(PID.TID 0000.0001)  OB_Iw = /* Western OB local indices */
(PID.TID 0000.0001)    18 @      -99                            /* J = -2: 15 */
(PID.TID 0000.0001) ======== Tile bi=  14 , bj=   6 ========
(PID.TID 0000.0001)  OB_Jn = /* Northern OB local indices */
(PID.TID 0000.0001)    22 @      -99                            /* I = -2: 19 */
(PID.TID 0000.0001)  OB_Js = /* Southern OB local indices */
(PID.TID 0000.0001)    22 @      -99                            /* I = -2: 19 */
(PID.TID 0000.0001)  OB_Ie = /* Eastern OB local indices */
(PID.TID 0000.0001)    18 @      -99                            /* J = -2: 15 */
(PID.TID 0000.0001)  OB_Iw = /* Western OB local indices */
(PID.TID 0000.0001)    18 @      -99                            /* J = -2: 15 */
(PID.TID 0000.0001) ======== Tile bi=  15 , bj=   6 ========
(PID.TID 0000.0001)  OB_Jn = /* Northern OB local indices */
(PID.TID 0000.0001)    22 @      -99                            /* I = -2: 19 */
(PID.TID 0000.0001)  OB_Js = /* Southern OB local indices */
(PID.TID 0000.0001)    22 @      -99                            /* I = -2: 19 */
(PID.TID 0000.0001)  OB_Ie = /* Eastern OB local indices */
(PID.TID 0000.0001)    18 @      -99                            /* J = -2: 15 */
(PID.TID 0000.0001)  OB_Iw = /* Western OB local indices */
(PID.TID 0000.0001)    18 @      -99                            /* J = -2: 15 */
(PID.TID 0000.0001) ======== Tile bi=   1 , bj=   7 ========
(PID.TID 0000.0001)  OB_Jn = /* Northern OB local indices */
(PID.TID 0000.0001)    22 @      -99                            /* I = -2: 19 */
(PID.TID 0000.0001)  OB_Js = /* Southern OB local indices */
(PID.TID 0000.0001)    22 @      -99                            /* I = -2: 19 */
(PID.TID 0000.0001)  OB_Ie = /* Eastern OB local indices */
(PID.TID 0000.0001)    18 @      -99                            /* J = -2: 15 */
(PID.TID 0000.0001)  OB_Iw = /* Western OB local indices */
(PID.TID 0000.0001)    18 @      -99                            /* J = -2: 15 */
(PID.TID 0000.0001) ======== Tile bi=   2 , bj=   7 ========
(PID.TID 0000.0001)  OB_Jn = /* Northern OB local indices */
(PID.TID 0000.0001)    22 @      -99                            /* I = -2: 19 */
(PID.TID 0000.0001)  OB_Js = /* Southern OB local indices */
(PID.TID 0000.0001)    22 @      -99                            /* I = -2: 19 */
(PID.TID 0000.0001)  OB_Ie = /* Eastern OB local indices */
(PID.TID 0000.0001)    18 @      -99                            /* J = -2: 15 */
(PID.TID 0000.0001)  OB_Iw = /* Western OB local indices */
(PID.TID 0000.0001)    18 @      -99                            /* J = -2: 15 */
(PID.TID 0000.0001) ======== Tile bi=   3 , bj=   7 ========
(PID.TID 0000.0001)  OB_Jn = /* Northern OB local indices */
(PID.TID 0000.0001)    22 @      -99                            /* I = -2: 19 */
(PID.TID 0000.0001)  OB_Js = /* Southern OB local indices */
(PID.TID 0000.0001)    22 @      -99                            /* I = -2: 19 */
(PID.TID 0000.0001)  OB_Ie = /* Eastern OB local indices */
(PID.TID 0000.0001)    18 @      -99                            /* J = -2: 15 */
(PID.TID 0000.0001)  OB_Iw = /* Western OB local indices */
(PID.TID 0000.0001)    18 @      -99                            /* J = -2: 15 */
(PID.TID 0000.0001) ======== Tile bi=   4 , bj=   7 ========
(PID.TID 0000.0001)  OB_Jn = /* Northern OB local indices */
(PID.TID 0000.0001)    22 @      -99                            /* I = -2: 19 */
(PID.TID 0000.0001)  OB_Js = /* Southern OB local indices */
(PID.TID 0000.0001)    22 @      -99                            /* I = -2: 19 */
(PID.TID 0000.0001)  OB_Ie = /* Eastern OB local indices */
(PID.TID 0000.0001)    18 @      -99                            /* J = -2: 15 */
(PID.TID 0000.0001)  OB_Iw = /* Western OB local indices */
(PID.TID 0000.0001)    18 @      -99                            /* J = -2: 15 */
(PID.TID 0000.0001) ======== Tile bi=   5 , bj=   7 ========
(PID.TID 0000.0001)  OB_Jn = /* Northern OB local indices */
(PID.TID 0000.0001)    22 @      -99                            /* I = -2: 19 */
(PID.TID 0000.0001)  OB_Js = /* Southern OB local indices */
(PID.TID 0000.0001)    22 @      -99                            /* I = -2: 19 */
(PID.TID 0000.0001)  OB_Ie = /* Eastern OB local indices */
(PID.TID 0000.0001)    18 @      -99                            /* J = -2: 15 */
(PID.TID 0000.0001)  OB_Iw = /* Western OB local indices */
(PID.TID 0000.0001)    18 @      -99                            /* J = -2: 15 */
(PID.TID 0000.0001) ======== Tile bi=   6 , bj=   7 ========
(PID.TID 0000.0001)  OB_Jn = /* Northern OB local indices */
(PID.TID 0000.0001)    22 @      -99                            /* I = -2: 19 */
(PID.TID 0000.0001)  OB_Js = /* Southern OB local indices */
(PID.TID 0000.0001)    22 @      -99                            /* I = -2: 19 */
(PID.TID 0000.0001)  OB_Ie = /* Eastern OB local indices */
(PID.TID 0000.0001)    18 @      -99                            /* J = -2: 15 */
(PID.TID 0000.0001)  OB_Iw = /* Western OB local indices */
(PID.TID 0000.0001)    18 @      -99                            /* J = -2: 15 */
(PID.TID 0000.0001) ======== Tile bi=   7 , bj=   7 ========
(PID.TID 0000.0001)  OB_Jn = /* Northern OB local indices */
(PID.TID 0000.0001)    22 @      -99                            /* I = -2: 19 */
(PID.TID 0000.0001)  OB_Js = /* Southern OB local indices */
(PID.TID 0000.0001)    22 @      -99                            /* I = -2: 19 */
(PID.TID 0000.0001)  OB_Ie = /* Eastern OB local indices */
(PID.TID 0000.0001)    18 @      -99                            /* J = -2: 15 */
(PID.TID 0000.0001)  OB_Iw = /* Western OB local indices */
(PID.TID 0000.0001)    18 @      -99                            /* J = -2: 15 */
(PID.TID 0000.0001) ======== Tile bi=   8 , bj=   7 ========
(PID.TID 0000.0001)  OB_Jn = /* Northern OB local indices */
(PID.TID 0000.0001)    22 @      -99                            /* I = -2: 19 */
(PID.TID 0000.0001)  OB_Js = /* Southern OB local indices */
(PID.TID 0000.0001)    22 @      -99                            /* I = -2: 19 */
(PID.TID 0000.0001)  OB_Ie = /* Eastern OB local indices */
(PID.TID 0000.0001)    18 @      -99                            /* J = -2: 15 */
(PID.TID 0000.0001)  OB_Iw = /* Western OB local indices */
(PID.TID 0000.0001)    18 @      -99                            /* J = -2: 15 */
(PID.TID 0000.0001) ======== Tile bi=   9 , bj=   7 ========
(PID.TID 0000.0001)  OB_Jn = /* Northern OB local indices */
(PID.TID 0000.0001)    22 @      -99                            /* I = -2: 19 */
(PID.TID 0000.0001)  OB_Js = /* Southern OB local indices */
(PID.TID 0000.0001)    22 @      -99                            /* I = -2: 19 */
(PID.TID 0000.0001)  OB_Ie = /* Eastern OB local indices */
(PID.TID 0000.0001)    18 @      -99                            /* J = -2: 15 */
(PID.TID 0000.0001)  OB_Iw = /* Western OB local indices */
(PID.TID 0000.0001)    18 @      -99                            /* J = -2: 15 */
(PID.TID 0000.0001) ======== Tile bi=  10 , bj=   7 ========
(PID.TID 0000.0001)  OB_Jn = /* Northern OB local indices */
(PID.TID 0000.0001)    22 @      -99                            /* I = -2: 19 */
(PID.TID 0000.0001)  OB_Js = /* Southern OB local indices */
(PID.TID 0000.0001)    22 @      -99                            /* I = -2: 19 */
(PID.TID 0000.0001)  OB_Ie = /* Eastern OB local indices */
(PID.TID 0000.0001)    18 @      -99                            /* J = -2: 15 */
(PID.TID 0000.0001)  OB_Iw = /* Western OB local indices */
(PID.TID 0000.0001)    18 @      -99                            /* J = -2: 15 */
(PID.TID 0000.0001) ======== Tile bi=  11 , bj=   7 ========
(PID.TID 0000.0001)  OB_Jn = /* Northern OB local indices */
(PID.TID 0000.0001)    22 @      -99                            /* I = -2: 19 */
(PID.TID 0000.0001)  OB_Js = /* Southern OB local indices */
(PID.TID 0000.0001)    22 @      -99                            /* I = -2: 19 */
(PID.TID 0000.0001)  OB_Ie = /* Eastern OB local indices */
(PID.TID 0000.0001)    18 @      -99                            /* J = -2: 15 */
(PID.TID 0000.0001)  OB_Iw = /* Western OB local indices */
(PID.TID 0000.0001)    18 @      -99                            /* J = -2: 15 */
(PID.TID 0000.0001) ======== Tile bi=  12 , bj=   7 ========
(PID.TID 0000.0001)  OB_Jn = /* Northern OB local indices */
(PID.TID 0000.0001)    22 @      -99                            /* I = -2: 19 */
(PID.TID 0000.0001)  OB_Js = /* Southern OB local indices */
(PID.TID 0000.0001)    22 @      -99                            /* I = -2: 19 */
(PID.TID 0000.0001)  OB_Ie = /* Eastern OB local indices */
(PID.TID 0000.0001)    18 @      -99                            /* J = -2: 15 */
(PID.TID 0000.0001)  OB_Iw = /* Western OB local indices */
(PID.TID 0000.0001)    18 @      -99                            /* J = -2: 15 */
(PID.TID 0000.0001) ======== Tile bi=  13 , bj=   7 ========
(PID.TID 0000.0001)  OB_Jn = /* Northern OB local indices */
(PID.TID 0000.0001)    22 @      -99                            /* I = -2: 19 */
(PID.TID 0000.0001)  OB_Js = /* Southern OB local indices */
(PID.TID 0000.0001)    22 @      -99                            /* I = -2: 19 */
(PID.TID 0000.0001)  OB_Ie = /* Eastern OB local indices */
(PID.TID 0000.0001)    18 @      -99                            /* J = -2: 15 */
(PID.TID 0000.0001)  OB_Iw = /* Western OB local indices */
(PID.TID 0000.0001)    18 @      -99                            /* J = -2: 15 */
(PID.TID 0000.0001) ======== Tile bi=  14 , bj=   7 ========
(PID.TID 0000.0001)  OB_Jn = /* Northern OB local indices */
(PID.TID 0000.0001)    22 @      -99                            /* I = -2: 19 */
(PID.TID 0000.0001)  OB_Js = /* Southern OB local indices */
(PID.TID 0000.0001)    22 @      -99                            /* I = -2: 19 */
(PID.TID 0000.0001)  OB_Ie = /* Eastern OB local indices */
(PID.TID 0000.0001)    18 @      -99                            /* J = -2: 15 */
(PID.TID 0000.0001)  OB_Iw = /* Western OB local indices */
(PID.TID 0000.0001)    18 @      -99                            /* J = -2: 15 */
(PID.TID 0000.0001) ======== Tile bi=  15 , bj=   7 ========
(PID.TID 0000.0001)  OB_Jn = /* Northern OB local indices */
(PID.TID 0000.0001)    22 @      -99                            /* I = -2: 19 */
(PID.TID 0000.0001)  OB_Js = /* Southern OB local indices */
(PID.TID 0000.0001)    22 @      -99                            /* I = -2: 19 */
(PID.TID 0000.0001)  OB_Ie = /* Eastern OB local indices */
(PID.TID 0000.0001)    18 @      -99                            /* J = -2: 15 */
(PID.TID 0000.0001)  OB_Iw = /* Western OB local indices */
(PID.TID 0000.0001)    18 @      -99                            /* J = -2: 15 */
(PID.TID 0000.0001) ======== Tile bi=   1 , bj=   8 ========
(PID.TID 0000.0001)  OB_Jn = /* Northern OB local indices */
(PID.TID 0000.0001)    22 @      -99                            /* I = -2: 19 */
(PID.TID 0000.0001)  OB_Js = /* Southern OB local indices */
(PID.TID 0000.0001)    22 @      -99                            /* I = -2: 19 */
(PID.TID 0000.0001)  OB_Ie = /* Eastern OB local indices */
(PID.TID 0000.0001)    18 @      -99                            /* J = -2: 15 */
(PID.TID 0000.0001)  OB_Iw = /* Western OB local indices */
(PID.TID 0000.0001)    18 @      -99                            /* J = -2: 15 */
(PID.TID 0000.0001) ======== Tile bi=   2 , bj=   8 ========
(PID.TID 0000.0001)  OB_Jn = /* Northern OB local indices */
(PID.TID 0000.0001)    22 @      -99                            /* I = -2: 19 */
(PID.TID 0000.0001)  OB_Js = /* Southern OB local indices */
(PID.TID 0000.0001)    22 @      -99                            /* I = -2: 19 */
(PID.TID 0000.0001)  OB_Ie = /* Eastern OB local indices */
(PID.TID 0000.0001)    18 @      -99                            /* J = -2: 15 */
(PID.TID 0000.0001)  OB_Iw = /* Western OB local indices */
(PID.TID 0000.0001)    18 @      -99                            /* J = -2: 15 */
(PID.TID 0000.0001) ======== Tile bi=   3 , bj=   8 ========
(PID.TID 0000.0001)  OB_Jn = /* Northern OB local indices */
(PID.TID 0000.0001)    22 @      -99                            /* I = -2: 19 */
(PID.TID 0000.0001)  OB_Js = /* Southern OB local indices */
(PID.TID 0000.0001)    22 @      -99                            /* I = -2: 19 */
(PID.TID 0000.0001)  OB_Ie = /* Eastern OB local indices */
(PID.TID 0000.0001)    18 @      -99                            /* J = -2: 15 */
(PID.TID 0000.0001)  OB_Iw = /* Western OB local indices */
(PID.TID 0000.0001)    18 @      -99                            /* J = -2: 15 */
(PID.TID 0000.0001) ======== Tile bi=   4 , bj=   8 ========
(PID.TID 0000.0001)  OB_Jn = /* Northern OB local indices */
(PID.TID 0000.0001)    22 @      -99                            /* I = -2: 19 */
(PID.TID 0000.0001)  OB_Js = /* Southern OB local indices */
(PID.TID 0000.0001)    22 @      -99                            /* I = -2: 19 */
(PID.TID 0000.0001)  OB_Ie = /* Eastern OB local indices */
(PID.TID 0000.0001)    18 @      -99                            /* J = -2: 15 */
(PID.TID 0000.0001)  OB_Iw = /* Western OB local indices */
(PID.TID 0000.0001)    18 @      -99                            /* J = -2: 15 */
(PID.TID 0000.0001) ======== Tile bi=   5 , bj=   8 ========
(PID.TID 0000.0001)  OB_Jn = /* Northern OB local indices */
(PID.TID 0000.0001)    22 @      -99                            /* I = -2: 19 */
(PID.TID 0000.0001)  OB_Js = /* Southern OB local indices */
(PID.TID 0000.0001)    22 @      -99                            /* I = -2: 19 */
(PID.TID 0000.0001)  OB_Ie = /* Eastern OB local indices */
(PID.TID 0000.0001)    18 @      -99                            /* J = -2: 15 */
(PID.TID 0000.0001)  OB_Iw = /* Western OB local indices */
(PID.TID 0000.0001)    18 @      -99                            /* J = -2: 15 */
(PID.TID 0000.0001) ======== Tile bi=   6 , bj=   8 ========
(PID.TID 0000.0001)  OB_Jn = /* Northern OB local indices */
(PID.TID 0000.0001)    22 @      -99                            /* I = -2: 19 */
(PID.TID 0000.0001)  OB_Js = /* Southern OB local indices */
(PID.TID 0000.0001)    22 @      -99                            /* I = -2: 19 */
(PID.TID 0000.0001)  OB_Ie = /* Eastern OB local indices */
(PID.TID 0000.0001)    18 @      -99                            /* J = -2: 15 */
(PID.TID 0000.0001)  OB_Iw = /* Western OB local indices */
(PID.TID 0000.0001)    18 @      -99                            /* J = -2: 15 */
(PID.TID 0000.0001) ======== Tile bi=   7 , bj=   8 ========
(PID.TID 0000.0001)  OB_Jn = /* Northern OB local indices */
(PID.TID 0000.0001)    22 @      -99                            /* I = -2: 19 */
(PID.TID 0000.0001)  OB_Js = /* Southern OB local indices */
(PID.TID 0000.0001)    22 @      -99                            /* I = -2: 19 */
(PID.TID 0000.0001)  OB_Ie = /* Eastern OB local indices */
(PID.TID 0000.0001)    18 @      -99                            /* J = -2: 15 */
(PID.TID 0000.0001)  OB_Iw = /* Western OB local indices */
(PID.TID 0000.0001)    18 @      -99                            /* J = -2: 15 */
(PID.TID 0000.0001) ======== Tile bi=   8 , bj=   8 ========
(PID.TID 0000.0001)  OB_Jn = /* Northern OB local indices */
(PID.TID 0000.0001)    22 @      -99                            /* I = -2: 19 */
(PID.TID 0000.0001)  OB_Js = /* Southern OB local indices */
(PID.TID 0000.0001)    22 @      -99                            /* I = -2: 19 */
(PID.TID 0000.0001)  OB_Ie = /* Eastern OB local indices */
(PID.TID 0000.0001)    18 @      -99                            /* J = -2: 15 */
(PID.TID 0000.0001)  OB_Iw = /* Western OB local indices */
(PID.TID 0000.0001)    18 @      -99                            /* J = -2: 15 */
(PID.TID 0000.0001) ======== Tile bi=   9 , bj=   8 ========
(PID.TID 0000.0001)  OB_Jn = /* Northern OB local indices */
(PID.TID 0000.0001)    22 @      -99                            /* I = -2: 19 */
(PID.TID 0000.0001)  OB_Js = /* Southern OB local indices */
(PID.TID 0000.0001)    22 @      -99                            /* I = -2: 19 */
(PID.TID 0000.0001)  OB_Ie = /* Eastern OB local indices */
(PID.TID 0000.0001)    18 @      -99                            /* J = -2: 15 */
(PID.TID 0000.0001)  OB_Iw = /* Western OB local indices */
(PID.TID 0000.0001)    18 @      -99                            /* J = -2: 15 */
(PID.TID 0000.0001) ======== Tile bi=  10 , bj=   8 ========
(PID.TID 0000.0001)  OB_Jn = /* Northern OB local indices */
(PID.TID 0000.0001)    22 @      -99                            /* I = -2: 19 */
(PID.TID 0000.0001)  OB_Js = /* Southern OB local indices */
(PID.TID 0000.0001)    22 @      -99                            /* I = -2: 19 */
(PID.TID 0000.0001)  OB_Ie = /* Eastern OB local indices */
(PID.TID 0000.0001)    18 @      -99                            /* J = -2: 15 */
(PID.TID 0000.0001)  OB_Iw = /* Western OB local indices */
(PID.TID 0000.0001)    18 @      -99                            /* J = -2: 15 */
(PID.TID 0000.0001) ======== Tile bi=  11 , bj=   8 ========
(PID.TID 0000.0001)  OB_Jn = /* Northern OB local indices */
(PID.TID 0000.0001)    22 @      -99                            /* I = -2: 19 */
(PID.TID 0000.0001)  OB_Js = /* Southern OB local indices */
(PID.TID 0000.0001)    22 @      -99                            /* I = -2: 19 */
(PID.TID 0000.0001)  OB_Ie = /* Eastern OB local indices */
(PID.TID 0000.0001)    18 @      -99                            /* J = -2: 15 */
(PID.TID 0000.0001)  OB_Iw = /* Western OB local indices */
(PID.TID 0000.0001)    18 @      -99                            /* J = -2: 15 */
(PID.TID 0000.0001) ======== Tile bi=  12 , bj=   8 ========
(PID.TID 0000.0001)  OB_Jn = /* Northern OB local indices */
(PID.TID 0000.0001)    22 @      -99                            /* I = -2: 19 */
(PID.TID 0000.0001)  OB_Js = /* Southern OB local indices */
(PID.TID 0000.0001)    22 @      -99                            /* I = -2: 19 */
(PID.TID 0000.0001)  OB_Ie = /* Eastern OB local indices */
(PID.TID 0000.0001)    18 @      -99                            /* J = -2: 15 */
(PID.TID 0000.0001)  OB_Iw = /* Western OB local indices */
(PID.TID 0000.0001)    18 @      -99                            /* J = -2: 15 */
(PID.TID 0000.0001) ======== Tile bi=  13 , bj=   8 ========
(PID.TID 0000.0001)  OB_Jn = /* Northern OB local indices */
(PID.TID 0000.0001)    22 @      -99                            /* I = -2: 19 */
(PID.TID 0000.0001)  OB_Js = /* Southern OB local indices */
(PID.TID 0000.0001)    22 @      -99                            /* I = -2: 19 */
(PID.TID 0000.0001)  OB_Ie = /* Eastern OB local indices */
(PID.TID 0000.0001)    18 @      -99                            /* J = -2: 15 */
(PID.TID 0000.0001)  OB_Iw = /* Western OB local indices */
(PID.TID 0000.0001)    18 @      -99                            /* J = -2: 15 */
(PID.TID 0000.0001) ======== Tile bi=  14 , bj=   8 ========
(PID.TID 0000.0001)  OB_Jn = /* Northern OB local indices */
(PID.TID 0000.0001)    22 @      -99                            /* I = -2: 19 */
(PID.TID 0000.0001)  OB_Js = /* Southern OB local indices */
(PID.TID 0000.0001)    22 @      -99                            /* I = -2: 19 */
(PID.TID 0000.0001)  OB_Ie = /* Eastern OB local indices */
(PID.TID 0000.0001)    18 @      -99                            /* J = -2: 15 */
(PID.TID 0000.0001)  OB_Iw = /* Western OB local indices */
(PID.TID 0000.0001)    18 @      -99                            /* J = -2: 15 */
(PID.TID 0000.0001) ======== Tile bi=  15 , bj=   8 ========
(PID.TID 0000.0001)  OB_Jn = /* Northern OB local indices */
(PID.TID 0000.0001)    22 @      -99                            /* I = -2: 19 */
(PID.TID 0000.0001)  OB_Js = /* Southern OB local indices */
(PID.TID 0000.0001)    22 @      -99                            /* I = -2: 19 */
(PID.TID 0000.0001)  OB_Ie = /* Eastern OB local indices */
(PID.TID 0000.0001)    18 @      -99                            /* J = -2: 15 */
(PID.TID 0000.0001)  OB_Iw = /* Western OB local indices */
(PID.TID 0000.0001)    18 @      -99                            /* J = -2: 15 */
(PID.TID 0000.0001) ======== Tile bi=   1 , bj=   9 ========
(PID.TID 0000.0001)  OB_Jn = /* Northern OB local indices */
(PID.TID 0000.0001)    22 @      -99                            /* I = -2: 19 */
(PID.TID 0000.0001)  OB_Js = /* Southern OB local indices */
(PID.TID 0000.0001)    22 @      -99                            /* I = -2: 19 */
(PID.TID 0000.0001)  OB_Ie = /* Eastern OB local indices */
(PID.TID 0000.0001)    18 @      -99                            /* J = -2: 15 */
(PID.TID 0000.0001)  OB_Iw = /* Western OB local indices */
(PID.TID 0000.0001)    18 @      -99                            /* J = -2: 15 */
(PID.TID 0000.0001) ======== Tile bi=   2 , bj=   9 ========
(PID.TID 0000.0001)  OB_Jn = /* Northern OB local indices */
(PID.TID 0000.0001)    22 @      -99                            /* I = -2: 19 */
(PID.TID 0000.0001)  OB_Js = /* Southern OB local indices */
(PID.TID 0000.0001)    22 @      -99                            /* I = -2: 19 */
(PID.TID 0000.0001)  OB_Ie = /* Eastern OB local indices */
(PID.TID 0000.0001)    18 @      -99                            /* J = -2: 15 */
(PID.TID 0000.0001)  OB_Iw = /* Western OB local indices */
(PID.TID 0000.0001)    18 @      -99                            /* J = -2: 15 */
(PID.TID 0000.0001) ======== Tile bi=   3 , bj=   9 ========
(PID.TID 0000.0001)  OB_Jn = /* Northern OB local indices */
(PID.TID 0000.0001)    22 @      -99                            /* I = -2: 19 */
(PID.TID 0000.0001)  OB_Js = /* Southern OB local indices */
(PID.TID 0000.0001)    22 @      -99                            /* I = -2: 19 */
(PID.TID 0000.0001)  OB_Ie = /* Eastern OB local indices */
(PID.TID 0000.0001)    18 @      -99                            /* J = -2: 15 */
(PID.TID 0000.0001)  OB_Iw = /* Western OB local indices */
(PID.TID 0000.0001)    18 @      -99                            /* J = -2: 15 */
(PID.TID 0000.0001) ======== Tile bi=   4 , bj=   9 ========
(PID.TID 0000.0001)  OB_Jn = /* Northern OB local indices */
(PID.TID 0000.0001)    22 @      -99                            /* I = -2: 19 */
(PID.TID 0000.0001)  OB_Js = /* Southern OB local indices */
(PID.TID 0000.0001)    22 @      -99                            /* I = -2: 19 */
(PID.TID 0000.0001)  OB_Ie = /* Eastern OB local indices */
(PID.TID 0000.0001)    18 @      -99                            /* J = -2: 15 */
(PID.TID 0000.0001)  OB_Iw = /* Western OB local indices */
(PID.TID 0000.0001)    18 @      -99                            /* J = -2: 15 */
(PID.TID 0000.0001) ======== Tile bi=   5 , bj=   9 ========
(PID.TID 0000.0001)  OB_Jn = /* Northern OB local indices */
(PID.TID 0000.0001)    22 @      -99                            /* I = -2: 19 */
(PID.TID 0000.0001)  OB_Js = /* Southern OB local indices */
(PID.TID 0000.0001)    22 @      -99                            /* I = -2: 19 */
(PID.TID 0000.0001)  OB_Ie = /* Eastern OB local indices */
(PID.TID 0000.0001)    18 @      -99                            /* J = -2: 15 */
(PID.TID 0000.0001)  OB_Iw = /* Western OB local indices */
(PID.TID 0000.0001)    18 @      -99                            /* J = -2: 15 */
(PID.TID 0000.0001) ======== Tile bi=   6 , bj=   9 ========
(PID.TID 0000.0001)  OB_Jn = /* Northern OB local indices */
(PID.TID 0000.0001)    22 @      -99                            /* I = -2: 19 */
(PID.TID 0000.0001)  OB_Js = /* Southern OB local indices */
(PID.TID 0000.0001)    22 @      -99                            /* I = -2: 19 */
(PID.TID 0000.0001)  OB_Ie = /* Eastern OB local indices */
(PID.TID 0000.0001)    18 @      -99                            /* J = -2: 15 */
(PID.TID 0000.0001)  OB_Iw = /* Western OB local indices */
(PID.TID 0000.0001)    18 @      -99                            /* J = -2: 15 */
(PID.TID 0000.0001) ======== Tile bi=   7 , bj=   9 ========
(PID.TID 0000.0001)  OB_Jn = /* Northern OB local indices */
(PID.TID 0000.0001)    22 @      -99                            /* I = -2: 19 */
(PID.TID 0000.0001)  OB_Js = /* Southern OB local indices */
(PID.TID 0000.0001)    22 @      -99                            /* I = -2: 19 */
(PID.TID 0000.0001)  OB_Ie = /* Eastern OB local indices */
(PID.TID 0000.0001)    18 @      -99                            /* J = -2: 15 */
(PID.TID 0000.0001)  OB_Iw = /* Western OB local indices */
(PID.TID 0000.0001)    18 @      -99                            /* J = -2: 15 */
(PID.TID 0000.0001) ======== Tile bi=   8 , bj=   9 ========
(PID.TID 0000.0001)  OB_Jn = /* Northern OB local indices */
(PID.TID 0000.0001)    22 @      -99                            /* I = -2: 19 */
(PID.TID 0000.0001)  OB_Js = /* Southern OB local indices */
(PID.TID 0000.0001)    22 @      -99                            /* I = -2: 19 */
(PID.TID 0000.0001)  OB_Ie = /* Eastern OB local indices */
(PID.TID 0000.0001)    18 @      -99                            /* J = -2: 15 */
(PID.TID 0000.0001)  OB_Iw = /* Western OB local indices */
(PID.TID 0000.0001)    18 @      -99                            /* J = -2: 15 */
(PID.TID 0000.0001) ======== Tile bi=   9 , bj=   9 ========
(PID.TID 0000.0001)  OB_Jn = /* Northern OB local indices */
(PID.TID 0000.0001)    22 @      -99                            /* I = -2: 19 */
(PID.TID 0000.0001)  OB_Js = /* Southern OB local indices */
(PID.TID 0000.0001)    22 @      -99                            /* I = -2: 19 */
(PID.TID 0000.0001)  OB_Ie = /* Eastern OB local indices */
(PID.TID 0000.0001)    18 @      -99                            /* J = -2: 15 */
(PID.TID 0000.0001)  OB_Iw = /* Western OB local indices */
(PID.TID 0000.0001)    18 @      -99                            /* J = -2: 15 */
(PID.TID 0000.0001) ======== Tile bi=  10 , bj=   9 ========
(PID.TID 0000.0001)  OB_Jn = /* Northern OB local indices */
(PID.TID 0000.0001)    22 @      -99                            /* I = -2: 19 */
(PID.TID 0000.0001)  OB_Js = /* Southern OB local indices */
(PID.TID 0000.0001)    22 @      -99                            /* I = -2: 19 */
(PID.TID 0000.0001)  OB_Ie = /* Eastern OB local indices */
(PID.TID 0000.0001)    18 @      -99                            /* J = -2: 15 */
(PID.TID 0000.0001)  OB_Iw = /* Western OB local indices */
(PID.TID 0000.0001)    18 @      -99                            /* J = -2: 15 */
(PID.TID 0000.0001) ======== Tile bi=  11 , bj=   9 ========
(PID.TID 0000.0001)  OB_Jn = /* Northern OB local indices */
(PID.TID 0000.0001)    22 @      -99                            /* I = -2: 19 */
(PID.TID 0000.0001)  OB_Js = /* Southern OB local indices */
(PID.TID 0000.0001)    22 @      -99                            /* I = -2: 19 */
(PID.TID 0000.0001)  OB_Ie = /* Eastern OB local indices */
(PID.TID 0000.0001)    18 @      -99                            /* J = -2: 15 */
(PID.TID 0000.0001)  OB_Iw = /* Western OB local indices */
(PID.TID 0000.0001)    18 @      -99                            /* J = -2: 15 */
(PID.TID 0000.0001) ======== Tile bi=  12 , bj=   9 ========
(PID.TID 0000.0001)  OB_Jn = /* Northern OB local indices */
(PID.TID 0000.0001)    22 @      -99                            /* I = -2: 19 */
(PID.TID 0000.0001)  OB_Js = /* Southern OB local indices */
(PID.TID 0000.0001)    22 @      -99                            /* I = -2: 19 */
(PID.TID 0000.0001)  OB_Ie = /* Eastern OB local indices */
(PID.TID 0000.0001)    18 @      -99                            /* J = -2: 15 */
(PID.TID 0000.0001)  OB_Iw = /* Western OB local indices */
(PID.TID 0000.0001)    18 @      -99                            /* J = -2: 15 */
(PID.TID 0000.0001) ======== Tile bi=  13 , bj=   9 ========
(PID.TID 0000.0001)  OB_Jn = /* Northern OB local indices */
(PID.TID 0000.0001)    22 @      -99                            /* I = -2: 19 */
(PID.TID 0000.0001)  OB_Js = /* Southern OB local indices */
(PID.TID 0000.0001)    22 @      -99                            /* I = -2: 19 */
(PID.TID 0000.0001)  OB_Ie = /* Eastern OB local indices */
(PID.TID 0000.0001)    18 @      -99                            /* J = -2: 15 */
(PID.TID 0000.0001)  OB_Iw = /* Western OB local indices */
(PID.TID 0000.0001)    18 @      -99                            /* J = -2: 15 */
(PID.TID 0000.0001) ======== Tile bi=  14 , bj=   9 ========
(PID.TID 0000.0001)  OB_Jn = /* Northern OB local indices */
(PID.TID 0000.0001)    22 @      -99                            /* I = -2: 19 */
(PID.TID 0000.0001)  OB_Js = /* Southern OB local indices */
(PID.TID 0000.0001)    22 @      -99                            /* I = -2: 19 */
(PID.TID 0000.0001)  OB_Ie = /* Eastern OB local indices */
(PID.TID 0000.0001)    18 @      -99                            /* J = -2: 15 */
(PID.TID 0000.0001)  OB_Iw = /* Western OB local indices */
(PID.TID 0000.0001)    18 @      -99                            /* J = -2: 15 */
(PID.TID 0000.0001) ======== Tile bi=  15 , bj=   9 ========
(PID.TID 0000.0001)  OB_Jn = /* Northern OB local indices */
(PID.TID 0000.0001)    22 @      -99                            /* I = -2: 19 */
(PID.TID 0000.0001)  OB_Js = /* Southern OB local indices */
(PID.TID 0000.0001)    22 @      -99                            /* I = -2: 19 */
(PID.TID 0000.0001)  OB_Ie = /* Eastern OB local indices */
(PID.TID 0000.0001)    18 @      -99                            /* J = -2: 15 */
(PID.TID 0000.0001)  OB_Iw = /* Western OB local indices */
(PID.TID 0000.0001)    18 @      -99                            /* J = -2: 15 */
(PID.TID 0000.0001) ======== Tile bi=   1 , bj=  10 ========
(PID.TID 0000.0001)  OB_Jn = /* Northern OB local indices */
(PID.TID 0000.0001)    22 @      -99                            /* I = -2: 19 */
(PID.TID 0000.0001)  OB_Js = /* Southern OB local indices */
(PID.TID 0000.0001)    22 @      -99                            /* I = -2: 19 */
(PID.TID 0000.0001)  OB_Ie = /* Eastern OB local indices */
(PID.TID 0000.0001)    18 @      -99                            /* J = -2: 15 */
(PID.TID 0000.0001)  OB_Iw = /* Western OB local indices */
(PID.TID 0000.0001)    18 @      -99                            /* J = -2: 15 */
(PID.TID 0000.0001) ======== Tile bi=   2 , bj=  10 ========
(PID.TID 0000.0001)  OB_Jn = /* Northern OB local indices */
(PID.TID 0000.0001)    22 @      -99                            /* I = -2: 19 */
(PID.TID 0000.0001)  OB_Js = /* Southern OB local indices */
(PID.TID 0000.0001)    22 @      -99                            /* I = -2: 19 */
(PID.TID 0000.0001)  OB_Ie = /* Eastern OB local indices */
(PID.TID 0000.0001)    18 @      -99                            /* J = -2: 15 */
(PID.TID 0000.0001)  OB_Iw = /* Western OB local indices */
(PID.TID 0000.0001)    18 @      -99                            /* J = -2: 15 */
(PID.TID 0000.0001) ======== Tile bi=   3 , bj=  10 ========
(PID.TID 0000.0001)  OB_Jn = /* Northern OB local indices */
(PID.TID 0000.0001)    22 @      -99                            /* I = -2: 19 */
(PID.TID 0000.0001)  OB_Js = /* Southern OB local indices */
(PID.TID 0000.0001)    22 @      -99                            /* I = -2: 19 */
(PID.TID 0000.0001)  OB_Ie = /* Eastern OB local indices */
(PID.TID 0000.0001)    18 @      -99                            /* J = -2: 15 */
(PID.TID 0000.0001)  OB_Iw = /* Western OB local indices */
(PID.TID 0000.0001)    18 @      -99                            /* J = -2: 15 */
(PID.TID 0000.0001) ======== Tile bi=   4 , bj=  10 ========
(PID.TID 0000.0001)  OB_Jn = /* Northern OB local indices */
(PID.TID 0000.0001)    22 @      -99                            /* I = -2: 19 */
(PID.TID 0000.0001)  OB_Js = /* Southern OB local indices */
(PID.TID 0000.0001)    22 @      -99                            /* I = -2: 19 */
(PID.TID 0000.0001)  OB_Ie = /* Eastern OB local indices */
(PID.TID 0000.0001)    18 @      -99                            /* J = -2: 15 */
(PID.TID 0000.0001)  OB_Iw = /* Western OB local indices */
(PID.TID 0000.0001)    18 @      -99                            /* J = -2: 15 */
(PID.TID 0000.0001) ======== Tile bi=   5 , bj=  10 ========
(PID.TID 0000.0001)  OB_Jn = /* Northern OB local indices */
(PID.TID 0000.0001)    22 @      -99                            /* I = -2: 19 */
(PID.TID 0000.0001)  OB_Js = /* Southern OB local indices */
(PID.TID 0000.0001)    22 @      -99                            /* I = -2: 19 */
(PID.TID 0000.0001)  OB_Ie = /* Eastern OB local indices */
(PID.TID 0000.0001)    18 @      -99                            /* J = -2: 15 */
(PID.TID 0000.0001)  OB_Iw = /* Western OB local indices */
(PID.TID 0000.0001)    18 @      -99                            /* J = -2: 15 */
(PID.TID 0000.0001) ======== Tile bi=   6 , bj=  10 ========
(PID.TID 0000.0001)  OB_Jn = /* Northern OB local indices */
(PID.TID 0000.0001)    22 @      -99                            /* I = -2: 19 */
(PID.TID 0000.0001)  OB_Js = /* Southern OB local indices */
(PID.TID 0000.0001)    22 @      -99                            /* I = -2: 19 */
(PID.TID 0000.0001)  OB_Ie = /* Eastern OB local indices */
(PID.TID 0000.0001)    18 @      -99                            /* J = -2: 15 */
(PID.TID 0000.0001)  OB_Iw = /* Western OB local indices */
(PID.TID 0000.0001)    18 @      -99                            /* J = -2: 15 */
(PID.TID 0000.0001) ======== Tile bi=   7 , bj=  10 ========
(PID.TID 0000.0001)  OB_Jn = /* Northern OB local indices */
(PID.TID 0000.0001)    22 @      -99                            /* I = -2: 19 */
(PID.TID 0000.0001)  OB_Js = /* Southern OB local indices */
(PID.TID 0000.0001)    22 @      -99                            /* I = -2: 19 */
(PID.TID 0000.0001)  OB_Ie = /* Eastern OB local indices */
(PID.TID 0000.0001)    18 @      -99                            /* J = -2: 15 */
(PID.TID 0000.0001)  OB_Iw = /* Western OB local indices */
(PID.TID 0000.0001)    18 @      -99                            /* J = -2: 15 */
(PID.TID 0000.0001) ======== Tile bi=   8 , bj=  10 ========
(PID.TID 0000.0001)  OB_Jn = /* Northern OB local indices */
(PID.TID 0000.0001)    22 @      -99                            /* I = -2: 19 */
(PID.TID 0000.0001)  OB_Js = /* Southern OB local indices */
(PID.TID 0000.0001)    22 @      -99                            /* I = -2: 19 */
(PID.TID 0000.0001)  OB_Ie = /* Eastern OB local indices */
(PID.TID 0000.0001)    18 @      -99                            /* J = -2: 15 */
(PID.TID 0000.0001)  OB_Iw = /* Western OB local indices */
(PID.TID 0000.0001)    18 @      -99                            /* J = -2: 15 */
(PID.TID 0000.0001) ======== Tile bi=   9 , bj=  10 ========
(PID.TID 0000.0001)  OB_Jn = /* Northern OB local indices */
(PID.TID 0000.0001)    22 @      -99                            /* I = -2: 19 */
(PID.TID 0000.0001)  OB_Js = /* Southern OB local indices */
(PID.TID 0000.0001)    22 @      -99                            /* I = -2: 19 */
(PID.TID 0000.0001)  OB_Ie = /* Eastern OB local indices */
(PID.TID 0000.0001)    18 @      -99                            /* J = -2: 15 */
(PID.TID 0000.0001)  OB_Iw = /* Western OB local indices */
(PID.TID 0000.0001)    18 @      -99                            /* J = -2: 15 */
(PID.TID 0000.0001) ======== Tile bi=  10 , bj=  10 ========
(PID.TID 0000.0001)  OB_Jn = /* Northern OB local indices */
(PID.TID 0000.0001)    22 @      -99                            /* I = -2: 19 */
(PID.TID 0000.0001)  OB_Js = /* Southern OB local indices */
(PID.TID 0000.0001)    22 @      -99                            /* I = -2: 19 */
(PID.TID 0000.0001)  OB_Ie = /* Eastern OB local indices */
(PID.TID 0000.0001)    18 @      -99                            /* J = -2: 15 */
(PID.TID 0000.0001)  OB_Iw = /* Western OB local indices */
(PID.TID 0000.0001)    18 @      -99                            /* J = -2: 15 */
(PID.TID 0000.0001) ======== Tile bi=  11 , bj=  10 ========
(PID.TID 0000.0001)  OB_Jn = /* Northern OB local indices */
(PID.TID 0000.0001)    22 @      -99                            /* I = -2: 19 */
(PID.TID 0000.0001)  OB_Js = /* Southern OB local indices */
(PID.TID 0000.0001)    22 @      -99                            /* I = -2: 19 */
(PID.TID 0000.0001)  OB_Ie = /* Eastern OB local indices */
(PID.TID 0000.0001)    18 @      -99                            /* J = -2: 15 */
(PID.TID 0000.0001)  OB_Iw = /* Western OB local indices */
(PID.TID 0000.0001)    18 @      -99                            /* J = -2: 15 */
(PID.TID 0000.0001) ======== Tile bi=  12 , bj=  10 ========
(PID.TID 0000.0001)  OB_Jn = /* Northern OB local indices */
(PID.TID 0000.0001)    22 @      -99                            /* I = -2: 19 */
(PID.TID 0000.0001)  OB_Js = /* Southern OB local indices */
(PID.TID 0000.0001)    22 @      -99                            /* I = -2: 19 */
(PID.TID 0000.0001)  OB_Ie = /* Eastern OB local indices */
(PID.TID 0000.0001)    18 @      -99                            /* J = -2: 15 */
(PID.TID 0000.0001)  OB_Iw = /* Western OB local indices */
(PID.TID 0000.0001)    18 @      -99                            /* J = -2: 15 */
(PID.TID 0000.0001) ======== Tile bi=  13 , bj=  10 ========
(PID.TID 0000.0001)  OB_Jn = /* Northern OB local indices */
(PID.TID 0000.0001)    22 @      -99                            /* I = -2: 19 */
(PID.TID 0000.0001)  OB_Js = /* Southern OB local indices */
(PID.TID 0000.0001)    22 @      -99                            /* I = -2: 19 */
(PID.TID 0000.0001)  OB_Ie = /* Eastern OB local indices */
(PID.TID 0000.0001)    18 @      -99                            /* J = -2: 15 */
(PID.TID 0000.0001)  OB_Iw = /* Western OB local indices */
(PID.TID 0000.0001)    18 @      -99                            /* J = -2: 15 */
(PID.TID 0000.0001) ======== Tile bi=  14 , bj=  10 ========
(PID.TID 0000.0001)  OB_Jn = /* Northern OB local indices */
(PID.TID 0000.0001)    22 @      -99                            /* I = -2: 19 */
(PID.TID 0000.0001)  OB_Js = /* Southern OB local indices */
(PID.TID 0000.0001)    22 @      -99                            /* I = -2: 19 */
(PID.TID 0000.0001)  OB_Ie = /* Eastern OB local indices */
(PID.TID 0000.0001)    18 @      -99                            /* J = -2: 15 */
(PID.TID 0000.0001)  OB_Iw = /* Western OB local indices */
(PID.TID 0000.0001)    18 @      -99                            /* J = -2: 15 */
(PID.TID 0000.0001) ======== Tile bi=  15 , bj=  10 ========
(PID.TID 0000.0001)  OB_Jn = /* Northern OB local indices */
(PID.TID 0000.0001)    22 @      -99                            /* I = -2: 19 */
(PID.TID 0000.0001)  OB_Js = /* Southern OB local indices */
(PID.TID 0000.0001)    22 @      -99                            /* I = -2: 19 */
(PID.TID 0000.0001)  OB_Ie = /* Eastern OB local indices */
(PID.TID 0000.0001)    18 @      -99                            /* J = -2: 15 */
(PID.TID 0000.0001)  OB_Iw = /* Western OB local indices */
(PID.TID 0000.0001)    18 @      -99                            /* J = -2: 15 */
(PID.TID 0000.0001) ======== Tile bi=   1 , bj=  11 ========
(PID.TID 0000.0001)  OB_Jn = /* Northern OB local indices */
(PID.TID 0000.0001)    22 @      -99                            /* I = -2: 19 */
(PID.TID 0000.0001)  OB_Js = /* Southern OB local indices */
(PID.TID 0000.0001)    22 @      -99                            /* I = -2: 19 */
(PID.TID 0000.0001)  OB_Ie = /* Eastern OB local indices */
(PID.TID 0000.0001)    18 @      -99                            /* J = -2: 15 */
(PID.TID 0000.0001)  OB_Iw = /* Western OB local indices */
(PID.TID 0000.0001)    18 @      -99                            /* J = -2: 15 */
(PID.TID 0000.0001) ======== Tile bi=   2 , bj=  11 ========
(PID.TID 0000.0001)  OB_Jn = /* Northern OB local indices */
(PID.TID 0000.0001)    22 @      -99                            /* I = -2: 19 */
(PID.TID 0000.0001)  OB_Js = /* Southern OB local indices */
(PID.TID 0000.0001)    22 @      -99                            /* I = -2: 19 */
(PID.TID 0000.0001)  OB_Ie = /* Eastern OB local indices */
(PID.TID 0000.0001)    18 @      -99                            /* J = -2: 15 */
(PID.TID 0000.0001)  OB_Iw = /* Western OB local indices */
(PID.TID 0000.0001)    18 @      -99                            /* J = -2: 15 */
(PID.TID 0000.0001) ======== Tile bi=   3 , bj=  11 ========
(PID.TID 0000.0001)  OB_Jn = /* Northern OB local indices */
(PID.TID 0000.0001)    22 @      -99                            /* I = -2: 19 */
(PID.TID 0000.0001)  OB_Js = /* Southern OB local indices */
(PID.TID 0000.0001)    22 @      -99                            /* I = -2: 19 */
(PID.TID 0000.0001)  OB_Ie = /* Eastern OB local indices */
(PID.TID 0000.0001)    18 @      -99                            /* J = -2: 15 */
(PID.TID 0000.0001)  OB_Iw = /* Western OB local indices */
(PID.TID 0000.0001)    18 @      -99                            /* J = -2: 15 */
(PID.TID 0000.0001) ======== Tile bi=   4 , bj=  11 ========
(PID.TID 0000.0001)  OB_Jn = /* Northern OB local indices */
(PID.TID 0000.0001)    22 @      -99                            /* I = -2: 19 */
(PID.TID 0000.0001)  OB_Js = /* Southern OB local indices */
(PID.TID 0000.0001)    22 @      -99                            /* I = -2: 19 */
(PID.TID 0000.0001)  OB_Ie = /* Eastern OB local indices */
(PID.TID 0000.0001)    18 @      -99                            /* J = -2: 15 */
(PID.TID 0000.0001)  OB_Iw = /* Western OB local indices */
(PID.TID 0000.0001)    18 @      -99                            /* J = -2: 15 */
(PID.TID 0000.0001) ======== Tile bi=   5 , bj=  11 ========
(PID.TID 0000.0001)  OB_Jn = /* Northern OB local indices */
(PID.TID 0000.0001)    22 @      -99                            /* I = -2: 19 */
(PID.TID 0000.0001)  OB_Js = /* Southern OB local indices */
(PID.TID 0000.0001)    22 @      -99                            /* I = -2: 19 */
(PID.TID 0000.0001)  OB_Ie = /* Eastern OB local indices */
(PID.TID 0000.0001)    18 @      -99                            /* J = -2: 15 */
(PID.TID 0000.0001)  OB_Iw = /* Western OB local indices */
(PID.TID 0000.0001)    18 @      -99                            /* J = -2: 15 */
(PID.TID 0000.0001) ======== Tile bi=   6 , bj=  11 ========
(PID.TID 0000.0001)  OB_Jn = /* Northern OB local indices */
(PID.TID 0000.0001)    22 @      -99                            /* I = -2: 19 */
(PID.TID 0000.0001)  OB_Js = /* Southern OB local indices */
(PID.TID 0000.0001)    22 @      -99                            /* I = -2: 19 */
(PID.TID 0000.0001)  OB_Ie = /* Eastern OB local indices */
(PID.TID 0000.0001)    18 @      -99                            /* J = -2: 15 */
(PID.TID 0000.0001)  OB_Iw = /* Western OB local indices */
(PID.TID 0000.0001)    18 @      -99                            /* J = -2: 15 */
(PID.TID 0000.0001) ======== Tile bi=   7 , bj=  11 ========
(PID.TID 0000.0001)  OB_Jn = /* Northern OB local indices */
(PID.TID 0000.0001)    22 @      -99                            /* I = -2: 19 */
(PID.TID 0000.0001)  OB_Js = /* Southern OB local indices */
(PID.TID 0000.0001)    22 @      -99                            /* I = -2: 19 */
(PID.TID 0000.0001)  OB_Ie = /* Eastern OB local indices */
(PID.TID 0000.0001)    18 @      -99                            /* J = -2: 15 */
(PID.TID 0000.0001)  OB_Iw = /* Western OB local indices */
(PID.TID 0000.0001)    18 @      -99                            /* J = -2: 15 */
(PID.TID 0000.0001) ======== Tile bi=   8 , bj=  11 ========
(PID.TID 0000.0001)  OB_Jn = /* Northern OB local indices */
(PID.TID 0000.0001)    22 @      -99                            /* I = -2: 19 */
(PID.TID 0000.0001)  OB_Js = /* Southern OB local indices */
(PID.TID 0000.0001)    22 @      -99                            /* I = -2: 19 */
(PID.TID 0000.0001)  OB_Ie = /* Eastern OB local indices */
(PID.TID 0000.0001)    18 @      -99                            /* J = -2: 15 */
(PID.TID 0000.0001)  OB_Iw = /* Western OB local indices */
(PID.TID 0000.0001)    18 @      -99                            /* J = -2: 15 */
(PID.TID 0000.0001) ======== Tile bi=   9 , bj=  11 ========
(PID.TID 0000.0001)  OB_Jn = /* Northern OB local indices */
(PID.TID 0000.0001)    22 @      -99                            /* I = -2: 19 */
(PID.TID 0000.0001)  OB_Js = /* Southern OB local indices */
(PID.TID 0000.0001)    22 @      -99                            /* I = -2: 19 */
(PID.TID 0000.0001)  OB_Ie = /* Eastern OB local indices */
(PID.TID 0000.0001)    18 @      -99                            /* J = -2: 15 */
(PID.TID 0000.0001)  OB_Iw = /* Western OB local indices */
(PID.TID 0000.0001)    18 @      -99                            /* J = -2: 15 */
(PID.TID 0000.0001) ======== Tile bi=  10 , bj=  11 ========
(PID.TID 0000.0001)  OB_Jn = /* Northern OB local indices */
(PID.TID 0000.0001)    22 @      -99                            /* I = -2: 19 */
(PID.TID 0000.0001)  OB_Js = /* Southern OB local indices */
(PID.TID 0000.0001)    22 @      -99                            /* I = -2: 19 */
(PID.TID 0000.0001)  OB_Ie = /* Eastern OB local indices */
(PID.TID 0000.0001)    18 @      -99                            /* J = -2: 15 */
(PID.TID 0000.0001)  OB_Iw = /* Western OB local indices */
(PID.TID 0000.0001)    18 @      -99                            /* J = -2: 15 */
(PID.TID 0000.0001) ======== Tile bi=  11 , bj=  11 ========
(PID.TID 0000.0001)  OB_Jn = /* Northern OB local indices */
(PID.TID 0000.0001)    22 @      -99                            /* I = -2: 19 */
(PID.TID 0000.0001)  OB_Js = /* Southern OB local indices */
(PID.TID 0000.0001)    22 @      -99                            /* I = -2: 19 */
(PID.TID 0000.0001)  OB_Ie = /* Eastern OB local indices */
(PID.TID 0000.0001)    18 @      -99                            /* J = -2: 15 */
(PID.TID 0000.0001)  OB_Iw = /* Western OB local indices */
(PID.TID 0000.0001)    18 @      -99                            /* J = -2: 15 */
(PID.TID 0000.0001) ======== Tile bi=  12 , bj=  11 ========
(PID.TID 0000.0001)  OB_Jn = /* Northern OB local indices */
(PID.TID 0000.0001)    22 @      -99                            /* I = -2: 19 */
(PID.TID 0000.0001)  OB_Js = /* Southern OB local indices */
(PID.TID 0000.0001)    22 @      -99                            /* I = -2: 19 */
(PID.TID 0000.0001)  OB_Ie = /* Eastern OB local indices */
(PID.TID 0000.0001)    18 @      -99                            /* J = -2: 15 */
(PID.TID 0000.0001)  OB_Iw = /* Western OB local indices */
(PID.TID 0000.0001)    18 @      -99                            /* J = -2: 15 */
(PID.TID 0000.0001) ======== Tile bi=  13 , bj=  11 ========
(PID.TID 0000.0001)  OB_Jn = /* Northern OB local indices */
(PID.TID 0000.0001)    22 @      -99                            /* I = -2: 19 */
(PID.TID 0000.0001)  OB_Js = /* Southern OB local indices */
(PID.TID 0000.0001)    22 @      -99                            /* I = -2: 19 */
(PID.TID 0000.0001)  OB_Ie = /* Eastern OB local indices */
(PID.TID 0000.0001)    18 @      -99                            /* J = -2: 15 */
(PID.TID 0000.0001)  OB_Iw = /* Western OB local indices */
(PID.TID 0000.0001)    18 @      -99                            /* J = -2: 15 */
(PID.TID 0000.0001) ======== Tile bi=  14 , bj=  11 ========
(PID.TID 0000.0001)  OB_Jn = /* Northern OB local indices */
(PID.TID 0000.0001)    22 @      -99                            /* I = -2: 19 */
(PID.TID 0000.0001)  OB_Js = /* Southern OB local indices */
(PID.TID 0000.0001)    22 @      -99                            /* I = -2: 19 */
(PID.TID 0000.0001)  OB_Ie = /* Eastern OB local indices */
(PID.TID 0000.0001)    18 @      -99                            /* J = -2: 15 */
(PID.TID 0000.0001)  OB_Iw = /* Western OB local indices */
(PID.TID 0000.0001)    18 @      -99                            /* J = -2: 15 */
(PID.TID 0000.0001) ======== Tile bi=  15 , bj=  11 ========
(PID.TID 0000.0001)  OB_Jn = /* Northern OB local indices */
(PID.TID 0000.0001)    22 @      -99                            /* I = -2: 19 */
(PID.TID 0000.0001)  OB_Js = /* Southern OB local indices */
(PID.TID 0000.0001)    22 @      -99                            /* I = -2: 19 */
(PID.TID 0000.0001)  OB_Ie = /* Eastern OB local indices */
(PID.TID 0000.0001)    18 @      -99                            /* J = -2: 15 */
(PID.TID 0000.0001)  OB_Iw = /* Western OB local indices */
(PID.TID 0000.0001)    18 @      -99                            /* J = -2: 15 */
(PID.TID 0000.0001) ======== Tile bi=   1 , bj=  12 ========
(PID.TID 0000.0001)  OB_Jn = /* Northern OB local indices */
(PID.TID 0000.0001)    22 @      -99                            /* I = -2: 19 */
(PID.TID 0000.0001)  OB_Js = /* Southern OB local indices */
(PID.TID 0000.0001)    22 @      -99                            /* I = -2: 19 */
(PID.TID 0000.0001)  OB_Ie = /* Eastern OB local indices */
(PID.TID 0000.0001)    18 @      -99                            /* J = -2: 15 */
(PID.TID 0000.0001)  OB_Iw = /* Western OB local indices */
(PID.TID 0000.0001)    18 @      -99                            /* J = -2: 15 */
(PID.TID 0000.0001) ======== Tile bi=   2 , bj=  12 ========
(PID.TID 0000.0001)  OB_Jn = /* Northern OB local indices */
(PID.TID 0000.0001)    22 @      -99                            /* I = -2: 19 */
(PID.TID 0000.0001)  OB_Js = /* Southern OB local indices */
(PID.TID 0000.0001)    22 @      -99                            /* I = -2: 19 */
(PID.TID 0000.0001)  OB_Ie = /* Eastern OB local indices */
(PID.TID 0000.0001)    18 @      -99                            /* J = -2: 15 */
(PID.TID 0000.0001)  OB_Iw = /* Western OB local indices */
(PID.TID 0000.0001)    18 @      -99                            /* J = -2: 15 */
(PID.TID 0000.0001) ======== Tile bi=   3 , bj=  12 ========
(PID.TID 0000.0001)  OB_Jn = /* Northern OB local indices */
(PID.TID 0000.0001)    22 @      -99                            /* I = -2: 19 */
(PID.TID 0000.0001)  OB_Js = /* Southern OB local indices */
(PID.TID 0000.0001)    22 @      -99                            /* I = -2: 19 */
(PID.TID 0000.0001)  OB_Ie = /* Eastern OB local indices */
(PID.TID 0000.0001)    18 @      -99                            /* J = -2: 15 */
(PID.TID 0000.0001)  OB_Iw = /* Western OB local indices */
(PID.TID 0000.0001)    18 @      -99                            /* J = -2: 15 */
(PID.TID 0000.0001) ======== Tile bi=   4 , bj=  12 ========
(PID.TID 0000.0001)  OB_Jn = /* Northern OB local indices */
(PID.TID 0000.0001)    22 @      -99                            /* I = -2: 19 */
(PID.TID 0000.0001)  OB_Js = /* Southern OB local indices */
(PID.TID 0000.0001)    22 @      -99                            /* I = -2: 19 */
(PID.TID 0000.0001)  OB_Ie = /* Eastern OB local indices */
(PID.TID 0000.0001)    18 @      -99                            /* J = -2: 15 */
(PID.TID 0000.0001)  OB_Iw = /* Western OB local indices */
(PID.TID 0000.0001)    18 @      -99                            /* J = -2: 15 */
(PID.TID 0000.0001) ======== Tile bi=   5 , bj=  12 ========
(PID.TID 0000.0001)  OB_Jn = /* Northern OB local indices */
(PID.TID 0000.0001)    22 @      -99                            /* I = -2: 19 */
(PID.TID 0000.0001)  OB_Js = /* Southern OB local indices */
(PID.TID 0000.0001)    22 @      -99                            /* I = -2: 19 */
(PID.TID 0000.0001)  OB_Ie = /* Eastern OB local indices */
(PID.TID 0000.0001)    18 @      -99                            /* J = -2: 15 */
(PID.TID 0000.0001)  OB_Iw = /* Western OB local indices */
(PID.TID 0000.0001)    18 @      -99                            /* J = -2: 15 */
(PID.TID 0000.0001) ======== Tile bi=   6 , bj=  12 ========
(PID.TID 0000.0001)  OB_Jn = /* Northern OB local indices */
(PID.TID 0000.0001)    22 @      -99                            /* I = -2: 19 */
(PID.TID 0000.0001)  OB_Js = /* Southern OB local indices */
(PID.TID 0000.0001)    22 @      -99                            /* I = -2: 19 */
(PID.TID 0000.0001)  OB_Ie = /* Eastern OB local indices */
(PID.TID 0000.0001)    18 @      -99                            /* J = -2: 15 */
(PID.TID 0000.0001)  OB_Iw = /* Western OB local indices */
(PID.TID 0000.0001)    18 @      -99                            /* J = -2: 15 */
(PID.TID 0000.0001) ======== Tile bi=   7 , bj=  12 ========
(PID.TID 0000.0001)  OB_Jn = /* Northern OB local indices */
(PID.TID 0000.0001)    22 @      -99                            /* I = -2: 19 */
(PID.TID 0000.0001)  OB_Js = /* Southern OB local indices */
(PID.TID 0000.0001)    22 @      -99                            /* I = -2: 19 */
(PID.TID 0000.0001)  OB_Ie = /* Eastern OB local indices */
(PID.TID 0000.0001)    18 @      -99                            /* J = -2: 15 */
(PID.TID 0000.0001)  OB_Iw = /* Western OB local indices */
(PID.TID 0000.0001)    18 @      -99                            /* J = -2: 15 */
(PID.TID 0000.0001) ======== Tile bi=   8 , bj=  12 ========
(PID.TID 0000.0001)  OB_Jn = /* Northern OB local indices */
(PID.TID 0000.0001)    22 @      -99                            /* I = -2: 19 */
(PID.TID 0000.0001)  OB_Js = /* Southern OB local indices */
(PID.TID 0000.0001)    22 @      -99                            /* I = -2: 19 */
(PID.TID 0000.0001)  OB_Ie = /* Eastern OB local indices */
(PID.TID 0000.0001)    18 @      -99                            /* J = -2: 15 */
(PID.TID 0000.0001)  OB_Iw = /* Western OB local indices */
(PID.TID 0000.0001)    18 @      -99                            /* J = -2: 15 */
(PID.TID 0000.0001) ======== Tile bi=   9 , bj=  12 ========
(PID.TID 0000.0001)  OB_Jn = /* Northern OB local indices */
(PID.TID 0000.0001)    22 @      -99                            /* I = -2: 19 */
(PID.TID 0000.0001)  OB_Js = /* Southern OB local indices */
(PID.TID 0000.0001)    22 @      -99                            /* I = -2: 19 */
(PID.TID 0000.0001)  OB_Ie = /* Eastern OB local indices */
(PID.TID 0000.0001)    18 @      -99                            /* J = -2: 15 */
(PID.TID 0000.0001)  OB_Iw = /* Western OB local indices */
(PID.TID 0000.0001)    18 @      -99                            /* J = -2: 15 */
(PID.TID 0000.0001) ======== Tile bi=  10 , bj=  12 ========
(PID.TID 0000.0001)  OB_Jn = /* Northern OB local indices */
(PID.TID 0000.0001)    22 @      -99                            /* I = -2: 19 */
(PID.TID 0000.0001)  OB_Js = /* Southern OB local indices */
(PID.TID 0000.0001)    22 @      -99                            /* I = -2: 19 */
(PID.TID 0000.0001)  OB_Ie = /* Eastern OB local indices */
(PID.TID 0000.0001)    18 @      -99                            /* J = -2: 15 */
(PID.TID 0000.0001)  OB_Iw = /* Western OB local indices */
(PID.TID 0000.0001)    18 @      -99                            /* J = -2: 15 */
(PID.TID 0000.0001) ======== Tile bi=  11 , bj=  12 ========
(PID.TID 0000.0001)  OB_Jn = /* Northern OB local indices */
(PID.TID 0000.0001)    22 @      -99                            /* I = -2: 19 */
(PID.TID 0000.0001)  OB_Js = /* Southern OB local indices */
(PID.TID 0000.0001)    22 @      -99                            /* I = -2: 19 */
(PID.TID 0000.0001)  OB_Ie = /* Eastern OB local indices */
(PID.TID 0000.0001)    18 @      -99                            /* J = -2: 15 */
(PID.TID 0000.0001)  OB_Iw = /* Western OB local indices */
(PID.TID 0000.0001)    18 @      -99                            /* J = -2: 15 */
(PID.TID 0000.0001) ======== Tile bi=  12 , bj=  12 ========
(PID.TID 0000.0001)  OB_Jn = /* Northern OB local indices */
(PID.TID 0000.0001)    22 @      -99                            /* I = -2: 19 */
(PID.TID 0000.0001)  OB_Js = /* Southern OB local indices */
(PID.TID 0000.0001)    22 @      -99                            /* I = -2: 19 */
(PID.TID 0000.0001)  OB_Ie = /* Eastern OB local indices */
(PID.TID 0000.0001)    18 @      -99                            /* J = -2: 15 */
(PID.TID 0000.0001)  OB_Iw = /* Western OB local indices */
(PID.TID 0000.0001)    18 @      -99                            /* J = -2: 15 */
(PID.TID 0000.0001) ======== Tile bi=  13 , bj=  12 ========
(PID.TID 0000.0001)  OB_Jn = /* Northern OB local indices */
(PID.TID 0000.0001)    22 @      -99                            /* I = -2: 19 */
(PID.TID 0000.0001)  OB_Js = /* Southern OB local indices */
(PID.TID 0000.0001)    22 @      -99                            /* I = -2: 19 */
(PID.TID 0000.0001)  OB_Ie = /* Eastern OB local indices */
(PID.TID 0000.0001)    18 @      -99                            /* J = -2: 15 */
(PID.TID 0000.0001)  OB_Iw = /* Western OB local indices */
(PID.TID 0000.0001)    18 @      -99                            /* J = -2: 15 */
(PID.TID 0000.0001) ======== Tile bi=  14 , bj=  12 ========
(PID.TID 0000.0001)  OB_Jn = /* Northern OB local indices */
(PID.TID 0000.0001)    22 @      -99                            /* I = -2: 19 */
(PID.TID 0000.0001)  OB_Js = /* Southern OB local indices */
(PID.TID 0000.0001)    22 @      -99                            /* I = -2: 19 */
(PID.TID 0000.0001)  OB_Ie = /* Eastern OB local indices */
(PID.TID 0000.0001)    18 @      -99                            /* J = -2: 15 */
(PID.TID 0000.0001)  OB_Iw = /* Western OB local indices */
(PID.TID 0000.0001)    18 @      -99                            /* J = -2: 15 */
(PID.TID 0000.0001) ======== Tile bi=  15 , bj=  12 ========
(PID.TID 0000.0001)  OB_Jn = /* Northern OB local indices */
(PID.TID 0000.0001)    22 @      -99                            /* I = -2: 19 */
(PID.TID 0000.0001)  OB_Js = /* Southern OB local indices */
(PID.TID 0000.0001)    22 @      -99                            /* I = -2: 19 */
(PID.TID 0000.0001)  OB_Ie = /* Eastern OB local indices */
(PID.TID 0000.0001)    18 @      -99                            /* J = -2: 15 */
(PID.TID 0000.0001)  OB_Iw = /* Western OB local indices */
(PID.TID 0000.0001)    18 @      -99                            /* J = -2: 15 */
(PID.TID 0000.0001) ======== Tile bi=   1 , bj=  13 ========
(PID.TID 0000.0001)  OB_Jn = /* Northern OB local indices */
(PID.TID 0000.0001)    22 @      -99                            /* I = -2: 19 */
(PID.TID 0000.0001)  OB_Js = /* Southern OB local indices */
(PID.TID 0000.0001)    22 @      -99                            /* I = -2: 19 */
(PID.TID 0000.0001)  OB_Ie = /* Eastern OB local indices */
(PID.TID 0000.0001)    18 @      -99                            /* J = -2: 15 */
(PID.TID 0000.0001)  OB_Iw = /* Western OB local indices */
(PID.TID 0000.0001)    18 @      -99                            /* J = -2: 15 */
(PID.TID 0000.0001) ======== Tile bi=   2 , bj=  13 ========
(PID.TID 0000.0001)  OB_Jn = /* Northern OB local indices */
(PID.TID 0000.0001)    22 @      -99                            /* I = -2: 19 */
(PID.TID 0000.0001)  OB_Js = /* Southern OB local indices */
(PID.TID 0000.0001)    22 @      -99                            /* I = -2: 19 */
(PID.TID 0000.0001)  OB_Ie = /* Eastern OB local indices */
(PID.TID 0000.0001)    18 @      -99                            /* J = -2: 15 */
(PID.TID 0000.0001)  OB_Iw = /* Western OB local indices */
(PID.TID 0000.0001)    18 @      -99                            /* J = -2: 15 */
(PID.TID 0000.0001) ======== Tile bi=   3 , bj=  13 ========
(PID.TID 0000.0001)  OB_Jn = /* Northern OB local indices */
(PID.TID 0000.0001)    22 @      -99                            /* I = -2: 19 */
(PID.TID 0000.0001)  OB_Js = /* Southern OB local indices */
(PID.TID 0000.0001)    22 @      -99                            /* I = -2: 19 */
(PID.TID 0000.0001)  OB_Ie = /* Eastern OB local indices */
(PID.TID 0000.0001)    18 @      -99                            /* J = -2: 15 */
(PID.TID 0000.0001)  OB_Iw = /* Western OB local indices */
(PID.TID 0000.0001)    18 @      -99                            /* J = -2: 15 */
(PID.TID 0000.0001) ======== Tile bi=   4 , bj=  13 ========
(PID.TID 0000.0001)  OB_Jn = /* Northern OB local indices */
(PID.TID 0000.0001)    22 @      -99                            /* I = -2: 19 */
(PID.TID 0000.0001)  OB_Js = /* Southern OB local indices */
(PID.TID 0000.0001)    22 @      -99                            /* I = -2: 19 */
(PID.TID 0000.0001)  OB_Ie = /* Eastern OB local indices */
(PID.TID 0000.0001)    18 @      -99                            /* J = -2: 15 */
(PID.TID 0000.0001)  OB_Iw = /* Western OB local indices */
(PID.TID 0000.0001)    18 @      -99                            /* J = -2: 15 */
(PID.TID 0000.0001) ======== Tile bi=   5 , bj=  13 ========
(PID.TID 0000.0001)  OB_Jn = /* Northern OB local indices */
(PID.TID 0000.0001)    22 @      -99                            /* I = -2: 19 */
(PID.TID 0000.0001)  OB_Js = /* Southern OB local indices */
(PID.TID 0000.0001)    22 @      -99                            /* I = -2: 19 */
(PID.TID 0000.0001)  OB_Ie = /* Eastern OB local indices */
(PID.TID 0000.0001)    18 @      -99                            /* J = -2: 15 */
(PID.TID 0000.0001)  OB_Iw = /* Western OB local indices */
(PID.TID 0000.0001)    18 @      -99                            /* J = -2: 15 */
(PID.TID 0000.0001) ======== Tile bi=   6 , bj=  13 ========
(PID.TID 0000.0001)  OB_Jn = /* Northern OB local indices */
(PID.TID 0000.0001)    22 @      -99                            /* I = -2: 19 */
(PID.TID 0000.0001)  OB_Js = /* Southern OB local indices */
(PID.TID 0000.0001)    22 @      -99                            /* I = -2: 19 */
(PID.TID 0000.0001)  OB_Ie = /* Eastern OB local indices */
(PID.TID 0000.0001)    18 @      -99                            /* J = -2: 15 */
(PID.TID 0000.0001)  OB_Iw = /* Western OB local indices */
(PID.TID 0000.0001)    18 @      -99                            /* J = -2: 15 */
(PID.TID 0000.0001) ======== Tile bi=   7 , bj=  13 ========
(PID.TID 0000.0001)  OB_Jn = /* Northern OB local indices */
(PID.TID 0000.0001)    22 @      -99                            /* I = -2: 19 */
(PID.TID 0000.0001)  OB_Js = /* Southern OB local indices */
(PID.TID 0000.0001)    22 @      -99                            /* I = -2: 19 */
(PID.TID 0000.0001)  OB_Ie = /* Eastern OB local indices */
(PID.TID 0000.0001)    18 @      -99                            /* J = -2: 15 */
(PID.TID 0000.0001)  OB_Iw = /* Western OB local indices */
(PID.TID 0000.0001)    18 @      -99                            /* J = -2: 15 */
(PID.TID 0000.0001) ======== Tile bi=   8 , bj=  13 ========
(PID.TID 0000.0001)  OB_Jn = /* Northern OB local indices */
(PID.TID 0000.0001)    22 @      -99                            /* I = -2: 19 */
(PID.TID 0000.0001)  OB_Js = /* Southern OB local indices */
(PID.TID 0000.0001)    22 @      -99                            /* I = -2: 19 */
(PID.TID 0000.0001)  OB_Ie = /* Eastern OB local indices */
(PID.TID 0000.0001)    18 @      -99                            /* J = -2: 15 */
(PID.TID 0000.0001)  OB_Iw = /* Western OB local indices */
(PID.TID 0000.0001)    18 @      -99                            /* J = -2: 15 */
(PID.TID 0000.0001) ======== Tile bi=   9 , bj=  13 ========
(PID.TID 0000.0001)  OB_Jn = /* Northern OB local indices */
(PID.TID 0000.0001)    22 @      -99                            /* I = -2: 19 */
(PID.TID 0000.0001)  OB_Js = /* Southern OB local indices */
(PID.TID 0000.0001)    22 @      -99                            /* I = -2: 19 */
(PID.TID 0000.0001)  OB_Ie = /* Eastern OB local indices */
(PID.TID 0000.0001)    18 @      -99                            /* J = -2: 15 */
(PID.TID 0000.0001)  OB_Iw = /* Western OB local indices */
(PID.TID 0000.0001)    18 @      -99                            /* J = -2: 15 */
(PID.TID 0000.0001) ======== Tile bi=  10 , bj=  13 ========
(PID.TID 0000.0001)  OB_Jn = /* Northern OB local indices */
(PID.TID 0000.0001)    22 @      -99                            /* I = -2: 19 */
(PID.TID 0000.0001)  OB_Js = /* Southern OB local indices */
(PID.TID 0000.0001)    22 @      -99                            /* I = -2: 19 */
(PID.TID 0000.0001)  OB_Ie = /* Eastern OB local indices */
(PID.TID 0000.0001)    18 @      -99                            /* J = -2: 15 */
(PID.TID 0000.0001)  OB_Iw = /* Western OB local indices */
(PID.TID 0000.0001)    18 @      -99                            /* J = -2: 15 */
(PID.TID 0000.0001) ======== Tile bi=  11 , bj=  13 ========
(PID.TID 0000.0001)  OB_Jn = /* Northern OB local indices */
(PID.TID 0000.0001)    22 @      -99                            /* I = -2: 19 */
(PID.TID 0000.0001)  OB_Js = /* Southern OB local indices */
(PID.TID 0000.0001)    22 @      -99                            /* I = -2: 19 */
(PID.TID 0000.0001)  OB_Ie = /* Eastern OB local indices */
(PID.TID 0000.0001)    18 @      -99                            /* J = -2: 15 */
(PID.TID 0000.0001)  OB_Iw = /* Western OB local indices */
(PID.TID 0000.0001)    18 @      -99                            /* J = -2: 15 */
(PID.TID 0000.0001) ======== Tile bi=  12 , bj=  13 ========
(PID.TID 0000.0001)  OB_Jn = /* Northern OB local indices */
(PID.TID 0000.0001)    22 @      -99                            /* I = -2: 19 */
(PID.TID 0000.0001)  OB_Js = /* Southern OB local indices */
(PID.TID 0000.0001)    22 @      -99                            /* I = -2: 19 */
(PID.TID 0000.0001)  OB_Ie = /* Eastern OB local indices */
(PID.TID 0000.0001)    18 @      -99                            /* J = -2: 15 */
(PID.TID 0000.0001)  OB_Iw = /* Western OB local indices */
(PID.TID 0000.0001)    18 @      -99                            /* J = -2: 15 */
(PID.TID 0000.0001) ======== Tile bi=  13 , bj=  13 ========
(PID.TID 0000.0001)  OB_Jn = /* Northern OB local indices */
(PID.TID 0000.0001)    22 @      -99                            /* I = -2: 19 */
(PID.TID 0000.0001)  OB_Js = /* Southern OB local indices */
(PID.TID 0000.0001)    22 @      -99                            /* I = -2: 19 */
(PID.TID 0000.0001)  OB_Ie = /* Eastern OB local indices */
(PID.TID 0000.0001)    18 @      -99                            /* J = -2: 15 */
(PID.TID 0000.0001)  OB_Iw = /* Western OB local indices */
(PID.TID 0000.0001)    18 @      -99                            /* J = -2: 15 */
(PID.TID 0000.0001) ======== Tile bi=  14 , bj=  13 ========
(PID.TID 0000.0001)  OB_Jn = /* Northern OB local indices */
(PID.TID 0000.0001)    22 @      -99                            /* I = -2: 19 */
(PID.TID 0000.0001)  OB_Js = /* Southern OB local indices */
(PID.TID 0000.0001)    22 @      -99                            /* I = -2: 19 */
(PID.TID 0000.0001)  OB_Ie = /* Eastern OB local indices */
(PID.TID 0000.0001)    18 @      -99                            /* J = -2: 15 */
(PID.TID 0000.0001)  OB_Iw = /* Western OB local indices */
(PID.TID 0000.0001)    18 @      -99                            /* J = -2: 15 */
(PID.TID 0000.0001) ======== Tile bi=  15 , bj=  13 ========
(PID.TID 0000.0001)  OB_Jn = /* Northern OB local indices */
(PID.TID 0000.0001)    22 @      -99                            /* I = -2: 19 */
(PID.TID 0000.0001)  OB_Js = /* Southern OB local indices */
(PID.TID 0000.0001)    22 @      -99                            /* I = -2: 19 */
(PID.TID 0000.0001)  OB_Ie = /* Eastern OB local indices */
(PID.TID 0000.0001)    18 @      -99                            /* J = -2: 15 */
(PID.TID 0000.0001)  OB_Iw = /* Western OB local indices */
(PID.TID 0000.0001)    18 @      -99                            /* J = -2: 15 */
(PID.TID 0000.0001) ======== Tile bi=   1 , bj=  14 ========
(PID.TID 0000.0001)  OB_Jn = /* Northern OB local indices */
(PID.TID 0000.0001)    22 @      -99                            /* I = -2: 19 */
(PID.TID 0000.0001)  OB_Js = /* Southern OB local indices */
(PID.TID 0000.0001)    22 @      -99                            /* I = -2: 19 */
(PID.TID 0000.0001)  OB_Ie = /* Eastern OB local indices */
(PID.TID 0000.0001)    18 @      -99                            /* J = -2: 15 */
(PID.TID 0000.0001)  OB_Iw = /* Western OB local indices */
(PID.TID 0000.0001)    18 @      -99                            /* J = -2: 15 */
(PID.TID 0000.0001) ======== Tile bi=   2 , bj=  14 ========
(PID.TID 0000.0001)  OB_Jn = /* Northern OB local indices */
(PID.TID 0000.0001)    22 @      -99                            /* I = -2: 19 */
(PID.TID 0000.0001)  OB_Js = /* Southern OB local indices */
(PID.TID 0000.0001)    22 @      -99                            /* I = -2: 19 */
(PID.TID 0000.0001)  OB_Ie = /* Eastern OB local indices */
(PID.TID 0000.0001)    18 @      -99                            /* J = -2: 15 */
(PID.TID 0000.0001)  OB_Iw = /* Western OB local indices */
(PID.TID 0000.0001)    18 @      -99                            /* J = -2: 15 */
(PID.TID 0000.0001) ======== Tile bi=   3 , bj=  14 ========
(PID.TID 0000.0001)  OB_Jn = /* Northern OB local indices */
(PID.TID 0000.0001)    22 @      -99                            /* I = -2: 19 */
(PID.TID 0000.0001)  OB_Js = /* Southern OB local indices */
(PID.TID 0000.0001)    22 @      -99                            /* I = -2: 19 */
(PID.TID 0000.0001)  OB_Ie = /* Eastern OB local indices */
(PID.TID 0000.0001)    18 @      -99                            /* J = -2: 15 */
(PID.TID 0000.0001)  OB_Iw = /* Western OB local indices */
(PID.TID 0000.0001)    18 @      -99                            /* J = -2: 15 */
(PID.TID 0000.0001) ======== Tile bi=   4 , bj=  14 ========
(PID.TID 0000.0001)  OB_Jn = /* Northern OB local indices */
(PID.TID 0000.0001)    22 @      -99                            /* I = -2: 19 */
(PID.TID 0000.0001)  OB_Js = /* Southern OB local indices */
(PID.TID 0000.0001)    22 @      -99                            /* I = -2: 19 */
(PID.TID 0000.0001)  OB_Ie = /* Eastern OB local indices */
(PID.TID 0000.0001)    18 @      -99                            /* J = -2: 15 */
(PID.TID 0000.0001)  OB_Iw = /* Western OB local indices */
(PID.TID 0000.0001)    18 @      -99                            /* J = -2: 15 */
(PID.TID 0000.0001) ======== Tile bi=   5 , bj=  14 ========
(PID.TID 0000.0001)  OB_Jn = /* Northern OB local indices */
(PID.TID 0000.0001)    22 @      -99                            /* I = -2: 19 */
(PID.TID 0000.0001)  OB_Js = /* Southern OB local indices */
(PID.TID 0000.0001)    22 @      -99                            /* I = -2: 19 */
(PID.TID 0000.0001)  OB_Ie = /* Eastern OB local indices */
(PID.TID 0000.0001)    18 @      -99                            /* J = -2: 15 */
(PID.TID 0000.0001)  OB_Iw = /* Western OB local indices */
(PID.TID 0000.0001)    18 @      -99                            /* J = -2: 15 */
(PID.TID 0000.0001) ======== Tile bi=   6 , bj=  14 ========
(PID.TID 0000.0001)  OB_Jn = /* Northern OB local indices */
(PID.TID 0000.0001)    22 @      -99                            /* I = -2: 19 */
(PID.TID 0000.0001)  OB_Js = /* Southern OB local indices */
(PID.TID 0000.0001)    22 @      -99                            /* I = -2: 19 */
(PID.TID 0000.0001)  OB_Ie = /* Eastern OB local indices */
(PID.TID 0000.0001)    18 @      -99                            /* J = -2: 15 */
(PID.TID 0000.0001)  OB_Iw = /* Western OB local indices */
(PID.TID 0000.0001)    18 @      -99                            /* J = -2: 15 */
(PID.TID 0000.0001) ======== Tile bi=   7 , bj=  14 ========
(PID.TID 0000.0001)  OB_Jn = /* Northern OB local indices */
(PID.TID 0000.0001)    22 @      -99                            /* I = -2: 19 */
(PID.TID 0000.0001)  OB_Js = /* Southern OB local indices */
(PID.TID 0000.0001)    22 @      -99                            /* I = -2: 19 */
(PID.TID 0000.0001)  OB_Ie = /* Eastern OB local indices */
(PID.TID 0000.0001)    18 @      -99                            /* J = -2: 15 */
(PID.TID 0000.0001)  OB_Iw = /* Western OB local indices */
(PID.TID 0000.0001)    18 @      -99                            /* J = -2: 15 */
(PID.TID 0000.0001) ======== Tile bi=   8 , bj=  14 ========
(PID.TID 0000.0001)  OB_Jn = /* Northern OB local indices */
(PID.TID 0000.0001)    22 @      -99                            /* I = -2: 19 */
(PID.TID 0000.0001)  OB_Js = /* Southern OB local indices */
(PID.TID 0000.0001)    22 @      -99                            /* I = -2: 19 */
(PID.TID 0000.0001)  OB_Ie = /* Eastern OB local indices */
(PID.TID 0000.0001)    18 @      -99                            /* J = -2: 15 */
(PID.TID 0000.0001)  OB_Iw = /* Western OB local indices */
(PID.TID 0000.0001)    18 @      -99                            /* J = -2: 15 */
(PID.TID 0000.0001) ======== Tile bi=   9 , bj=  14 ========
(PID.TID 0000.0001)  OB_Jn = /* Northern OB local indices */
(PID.TID 0000.0001)    22 @      -99                            /* I = -2: 19 */
(PID.TID 0000.0001)  OB_Js = /* Southern OB local indices */
(PID.TID 0000.0001)    22 @      -99                            /* I = -2: 19 */
(PID.TID 0000.0001)  OB_Ie = /* Eastern OB local indices */
(PID.TID 0000.0001)    18 @      -99                            /* J = -2: 15 */
(PID.TID 0000.0001)  OB_Iw = /* Western OB local indices */
(PID.TID 0000.0001)    18 @      -99                            /* J = -2: 15 */
(PID.TID 0000.0001) ======== Tile bi=  10 , bj=  14 ========
(PID.TID 0000.0001)  OB_Jn = /* Northern OB local indices */
(PID.TID 0000.0001)    22 @      -99                            /* I = -2: 19 */
(PID.TID 0000.0001)  OB_Js = /* Southern OB local indices */
(PID.TID 0000.0001)    22 @      -99                            /* I = -2: 19 */
(PID.TID 0000.0001)  OB_Ie = /* Eastern OB local indices */
(PID.TID 0000.0001)    18 @      -99                            /* J = -2: 15 */
(PID.TID 0000.0001)  OB_Iw = /* Western OB local indices */
(PID.TID 0000.0001)    18 @      -99                            /* J = -2: 15 */
(PID.TID 0000.0001) ======== Tile bi=  11 , bj=  14 ========
(PID.TID 0000.0001)  OB_Jn = /* Northern OB local indices */
(PID.TID 0000.0001)    22 @      -99                            /* I = -2: 19 */
(PID.TID 0000.0001)  OB_Js = /* Southern OB local indices */
(PID.TID 0000.0001)    22 @      -99                            /* I = -2: 19 */
(PID.TID 0000.0001)  OB_Ie = /* Eastern OB local indices */
(PID.TID 0000.0001)    18 @      -99                            /* J = -2: 15 */
(PID.TID 0000.0001)  OB_Iw = /* Western OB local indices */
(PID.TID 0000.0001)    18 @      -99                            /* J = -2: 15 */
(PID.TID 0000.0001) ======== Tile bi=  12 , bj=  14 ========
(PID.TID 0000.0001)  OB_Jn = /* Northern OB local indices */
(PID.TID 0000.0001)    22 @      -99                            /* I = -2: 19 */
(PID.TID 0000.0001)  OB_Js = /* Southern OB local indices */
(PID.TID 0000.0001)    22 @      -99                            /* I = -2: 19 */
(PID.TID 0000.0001)  OB_Ie = /* Eastern OB local indices */
(PID.TID 0000.0001)    18 @      -99                            /* J = -2: 15 */
(PID.TID 0000.0001)  OB_Iw = /* Western OB local indices */
(PID.TID 0000.0001)    18 @      -99                            /* J = -2: 15 */
(PID.TID 0000.0001) ======== Tile bi=  13 , bj=  14 ========
(PID.TID 0000.0001)  OB_Jn = /* Northern OB local indices */
(PID.TID 0000.0001)    22 @      -99                            /* I = -2: 19 */
(PID.TID 0000.0001)  OB_Js = /* Southern OB local indices */
(PID.TID 0000.0001)    22 @      -99                            /* I = -2: 19 */
(PID.TID 0000.0001)  OB_Ie = /* Eastern OB local indices */
(PID.TID 0000.0001)    18 @      -99                            /* J = -2: 15 */
(PID.TID 0000.0001)  OB_Iw = /* Western OB local indices */
(PID.TID 0000.0001)    18 @      -99                            /* J = -2: 15 */
(PID.TID 0000.0001) ======== Tile bi=  14 , bj=  14 ========
(PID.TID 0000.0001)  OB_Jn = /* Northern OB local indices */
(PID.TID 0000.0001)    22 @      -99                            /* I = -2: 19 */
(PID.TID 0000.0001)  OB_Js = /* Southern OB local indices */
(PID.TID 0000.0001)    22 @      -99                            /* I = -2: 19 */
(PID.TID 0000.0001)  OB_Ie = /* Eastern OB local indices */
(PID.TID 0000.0001)    18 @      -99                            /* J = -2: 15 */
(PID.TID 0000.0001)  OB_Iw = /* Western OB local indices */
(PID.TID 0000.0001)    18 @      -99                            /* J = -2: 15 */
(PID.TID 0000.0001) ======== Tile bi=  15 , bj=  14 ========
(PID.TID 0000.0001)  OB_Jn = /* Northern OB local indices */
(PID.TID 0000.0001)    22 @      -99                            /* I = -2: 19 */
(PID.TID 0000.0001)  OB_Js = /* Southern OB local indices */
(PID.TID 0000.0001)    22 @      -99                            /* I = -2: 19 */
(PID.TID 0000.0001)  OB_Ie = /* Eastern OB local indices */
(PID.TID 0000.0001)    18 @      -99                            /* J = -2: 15 */
(PID.TID 0000.0001)  OB_Iw = /* Western OB local indices */
(PID.TID 0000.0001)    18 @      -99                            /* J = -2: 15 */
(PID.TID 0000.0001) ======== Tile bi=   1 , bj=  15 ========
(PID.TID 0000.0001)  OB_Jn = /* Northern OB local indices */
(PID.TID 0000.0001)    22 @      -99                            /* I = -2: 19 */
(PID.TID 0000.0001)  OB_Js = /* Southern OB local indices */
(PID.TID 0000.0001)    22 @      -99                            /* I = -2: 19 */
(PID.TID 0000.0001)  OB_Ie = /* Eastern OB local indices */
(PID.TID 0000.0001)    18 @      -99                            /* J = -2: 15 */
(PID.TID 0000.0001)  OB_Iw = /* Western OB local indices */
(PID.TID 0000.0001)    18 @      -99                            /* J = -2: 15 */
(PID.TID 0000.0001) ======== Tile bi=   2 , bj=  15 ========
(PID.TID 0000.0001)  OB_Jn = /* Northern OB local indices */
(PID.TID 0000.0001)    22 @      -99                            /* I = -2: 19 */
(PID.TID 0000.0001)  OB_Js = /* Southern OB local indices */
(PID.TID 0000.0001)    22 @      -99                            /* I = -2: 19 */
(PID.TID 0000.0001)  OB_Ie = /* Eastern OB local indices */
(PID.TID 0000.0001)    18 @      -99                            /* J = -2: 15 */
(PID.TID 0000.0001)  OB_Iw = /* Western OB local indices */
(PID.TID 0000.0001)    18 @      -99                            /* J = -2: 15 */
(PID.TID 0000.0001) ======== Tile bi=   3 , bj=  15 ========
(PID.TID 0000.0001)  OB_Jn = /* Northern OB local indices */
(PID.TID 0000.0001)    22 @      -99                            /* I = -2: 19 */
(PID.TID 0000.0001)  OB_Js = /* Southern OB local indices */
(PID.TID 0000.0001)    22 @      -99                            /* I = -2: 19 */
(PID.TID 0000.0001)  OB_Ie = /* Eastern OB local indices */
(PID.TID 0000.0001)    18 @      -99                            /* J = -2: 15 */
(PID.TID 0000.0001)  OB_Iw = /* Western OB local indices */
(PID.TID 0000.0001)    18 @      -99                            /* J = -2: 15 */
(PID.TID 0000.0001) ======== Tile bi=   4 , bj=  15 ========
(PID.TID 0000.0001)  OB_Jn = /* Northern OB local indices */
(PID.TID 0000.0001)    22 @      -99                            /* I = -2: 19 */
(PID.TID 0000.0001)  OB_Js = /* Southern OB local indices */
(PID.TID 0000.0001)    22 @      -99                            /* I = -2: 19 */
(PID.TID 0000.0001)  OB_Ie = /* Eastern OB local indices */
(PID.TID 0000.0001)    18 @      -99                            /* J = -2: 15 */
(PID.TID 0000.0001)  OB_Iw = /* Western OB local indices */
(PID.TID 0000.0001)    18 @      -99                            /* J = -2: 15 */
(PID.TID 0000.0001) ======== Tile bi=   5 , bj=  15 ========
(PID.TID 0000.0001)  OB_Jn = /* Northern OB local indices */
(PID.TID 0000.0001)    22 @      -99                            /* I = -2: 19 */
(PID.TID 0000.0001)  OB_Js = /* Southern OB local indices */
(PID.TID 0000.0001)    22 @      -99                            /* I = -2: 19 */
(PID.TID 0000.0001)  OB_Ie = /* Eastern OB local indices */
(PID.TID 0000.0001)    18 @      -99                            /* J = -2: 15 */
(PID.TID 0000.0001)  OB_Iw = /* Western OB local indices */
(PID.TID 0000.0001)    18 @      -99                            /* J = -2: 15 */
(PID.TID 0000.0001) ======== Tile bi=   6 , bj=  15 ========
(PID.TID 0000.0001)  OB_Jn = /* Northern OB local indices */
(PID.TID 0000.0001)    22 @      -99                            /* I = -2: 19 */
(PID.TID 0000.0001)  OB_Js = /* Southern OB local indices */
(PID.TID 0000.0001)    22 @      -99                            /* I = -2: 19 */
(PID.TID 0000.0001)  OB_Ie = /* Eastern OB local indices */
(PID.TID 0000.0001)    18 @      -99                            /* J = -2: 15 */
(PID.TID 0000.0001)  OB_Iw = /* Western OB local indices */
(PID.TID 0000.0001)    18 @      -99                            /* J = -2: 15 */
(PID.TID 0000.0001) ======== Tile bi=   7 , bj=  15 ========
(PID.TID 0000.0001)  OB_Jn = /* Northern OB local indices */
(PID.TID 0000.0001)    22 @      -99                            /* I = -2: 19 */
(PID.TID 0000.0001)  OB_Js = /* Southern OB local indices */
(PID.TID 0000.0001)    22 @      -99                            /* I = -2: 19 */
(PID.TID 0000.0001)  OB_Ie = /* Eastern OB local indices */
(PID.TID 0000.0001)    18 @      -99                            /* J = -2: 15 */
(PID.TID 0000.0001)  OB_Iw = /* Western OB local indices */
(PID.TID 0000.0001)    18 @      -99                            /* J = -2: 15 */
(PID.TID 0000.0001) ======== Tile bi=   8 , bj=  15 ========
(PID.TID 0000.0001)  OB_Jn = /* Northern OB local indices */
(PID.TID 0000.0001)    22 @      -99                            /* I = -2: 19 */
(PID.TID 0000.0001)  OB_Js = /* Southern OB local indices */
(PID.TID 0000.0001)    22 @      -99                            /* I = -2: 19 */
(PID.TID 0000.0001)  OB_Ie = /* Eastern OB local indices */
(PID.TID 0000.0001)    18 @      -99                            /* J = -2: 15 */
(PID.TID 0000.0001)  OB_Iw = /* Western OB local indices */
(PID.TID 0000.0001)    18 @      -99                            /* J = -2: 15 */
(PID.TID 0000.0001) ======== Tile bi=   9 , bj=  15 ========
(PID.TID 0000.0001)  OB_Jn = /* Northern OB local indices */
(PID.TID 0000.0001)    22 @      -99                            /* I = -2: 19 */
(PID.TID 0000.0001)  OB_Js = /* Southern OB local indices */
(PID.TID 0000.0001)    22 @      -99                            /* I = -2: 19 */
(PID.TID 0000.0001)  OB_Ie = /* Eastern OB local indices */
(PID.TID 0000.0001)    18 @      -99                            /* J = -2: 15 */
(PID.TID 0000.0001)  OB_Iw = /* Western OB local indices */
(PID.TID 0000.0001)    18 @      -99                            /* J = -2: 15 */
(PID.TID 0000.0001) ======== Tile bi=  10 , bj=  15 ========
(PID.TID 0000.0001)  OB_Jn = /* Northern OB local indices */
(PID.TID 0000.0001)    22 @      -99                            /* I = -2: 19 */
(PID.TID 0000.0001)  OB_Js = /* Southern OB local indices */
(PID.TID 0000.0001)    22 @      -99                            /* I = -2: 19 */
(PID.TID 0000.0001)  OB_Ie = /* Eastern OB local indices */
(PID.TID 0000.0001)    18 @      -99                            /* J = -2: 15 */
(PID.TID 0000.0001)  OB_Iw = /* Western OB local indices */
(PID.TID 0000.0001)    18 @      -99                            /* J = -2: 15 */
(PID.TID 0000.0001) ======== Tile bi=  11 , bj=  15 ========
(PID.TID 0000.0001)  OB_Jn = /* Northern OB local indices */
(PID.TID 0000.0001)    22 @      -99                            /* I = -2: 19 */
(PID.TID 0000.0001)  OB_Js = /* Southern OB local indices */
(PID.TID 0000.0001)    22 @      -99                            /* I = -2: 19 */
(PID.TID 0000.0001)  OB_Ie = /* Eastern OB local indices */
(PID.TID 0000.0001)    18 @      -99                            /* J = -2: 15 */
(PID.TID 0000.0001)  OB_Iw = /* Western OB local indices */
(PID.TID 0000.0001)    18 @      -99                            /* J = -2: 15 */
(PID.TID 0000.0001) ======== Tile bi=  12 , bj=  15 ========
(PID.TID 0000.0001)  OB_Jn = /* Northern OB local indices */
(PID.TID 0000.0001)    22 @      -99                            /* I = -2: 19 */
(PID.TID 0000.0001)  OB_Js = /* Southern OB local indices */
(PID.TID 0000.0001)    22 @      -99                            /* I = -2: 19 */
(PID.TID 0000.0001)  OB_Ie = /* Eastern OB local indices */
(PID.TID 0000.0001)    18 @      -99                            /* J = -2: 15 */
(PID.TID 0000.0001)  OB_Iw = /* Western OB local indices */
(PID.TID 0000.0001)    18 @      -99                            /* J = -2: 15 */
(PID.TID 0000.0001) ======== Tile bi=  13 , bj=  15 ========
(PID.TID 0000.0001)  OB_Jn = /* Northern OB local indices */
(PID.TID 0000.0001)    22 @      -99                            /* I = -2: 19 */
(PID.TID 0000.0001)  OB_Js = /* Southern OB local indices */
(PID.TID 0000.0001)    22 @      -99                            /* I = -2: 19 */
(PID.TID 0000.0001)  OB_Ie = /* Eastern OB local indices */
(PID.TID 0000.0001)    18 @      -99                            /* J = -2: 15 */
(PID.TID 0000.0001)  OB_Iw = /* Western OB local indices */
(PID.TID 0000.0001)    18 @      -99                            /* J = -2: 15 */
(PID.TID 0000.0001) ======== Tile bi=  14 , bj=  15 ========
(PID.TID 0000.0001)  OB_Jn = /* Northern OB local indices */
(PID.TID 0000.0001)    22 @      -99                            /* I = -2: 19 */
(PID.TID 0000.0001)  OB_Js = /* Southern OB local indices */
(PID.TID 0000.0001)    22 @      -99                            /* I = -2: 19 */
(PID.TID 0000.0001)  OB_Ie = /* Eastern OB local indices */
(PID.TID 0000.0001)    18 @      -99                            /* J = -2: 15 */
(PID.TID 0000.0001)  OB_Iw = /* Western OB local indices */
(PID.TID 0000.0001)    18 @      -99                            /* J = -2: 15 */
(PID.TID 0000.0001) ======== Tile bi=  15 , bj=  15 ========
(PID.TID 0000.0001)  OB_Jn = /* Northern OB local indices */
(PID.TID 0000.0001)    22 @      -99                            /* I = -2: 19 */
(PID.TID 0000.0001)  OB_Js = /* Southern OB local indices */
(PID.TID 0000.0001)    22 @      -99                            /* I = -2: 19 */
(PID.TID 0000.0001)  OB_Ie = /* Eastern OB local indices */
(PID.TID 0000.0001)    18 @      -99                            /* J = -2: 15 */
(PID.TID 0000.0001)  OB_Iw = /* Western OB local indices */
(PID.TID 0000.0001)    18 @      -99                            /* J = -2: 15 */
(PID.TID 0000.0001) // =======================================================
(PID.TID 0000.0001) // End of OBCS config. summary
(PID.TID 0000.0001) // =======================================================
(PID.TID 0000.0001) 
(PID.TID 0000.0001) OBCS_CHECK: #define ALLOW_ORLANSKI
(PID.TID 0000.0001) OBCS_CHECK: set-up OK
(PID.TID 0000.0001) OBCS_CHECK: check Inside Mask and OB locations: OK
(PID.TID 0000.0001) 
(PID.TID 0000.0001) GAD_CHECK: #define ALLOW_GENERIC_ADVDIFF
(PID.TID 0000.0001) // =======================================================
(PID.TID 0000.0001) // Check Model config. (CONFIG_CHECK):
(PID.TID 0000.0001) // CONFIG_CHECK : Normal End
(PID.TID 0000.0001) // =======================================================
(PID.TID 0000.0001) 
(PID.TID 0000.0001)  MDS_READ_FIELD: opening global file: ../input/feb_temp_40zlev_240x180.bin
(PID.TID 0000.0001)  MDS_READ_FIELD: opening global file: ../input/feb_salt_40zlev_240x180.bin
(PID.TID 0000.0001) Start initial hydrostatic pressure computation
(PID.TID 0000.0001) Pressure is predetermined for buoyancyRelation OCEANIC
(PID.TID 0000.0001) 
(PID.TID 0000.0001)  MDS_READ_FIELD: opening global file: ../input/merid_halfgauss2p5hr_240x180.bin
(PID.TID 0000.0001) // =======================================================
(PID.TID 0000.0001) // Model current state
(PID.TID 0000.0001) // =======================================================
(PID.TID 0000.0001) 
(PID.TID 0000.0001) // =======================================================
(PID.TID 0000.0001) // Begin MONITOR dynamic field statistics
(PID.TID 0000.0001) // =======================================================
(PID.TID 0000.0001) %MON time_tsnumber                =                     0
(PID.TID 0000.0001) %MON time_secondsf                =   0.0000000000000E+00
(PID.TID 0000.0001) %MON dynstat_eta_max              =   0.0000000000000E+00
(PID.TID 0000.0001) %MON dynstat_eta_min              =   0.0000000000000E+00
(PID.TID 0000.0001) %MON dynstat_eta_mean             =   0.0000000000000E+00
(PID.TID 0000.0001) %MON dynstat_eta_sd               =   0.0000000000000E+00
(PID.TID 0000.0001) %MON dynstat_eta_del2             =   0.0000000000000E+00
(PID.TID 0000.0001) %MON dynstat_uvel_max             =   0.0000000000000E+00
(PID.TID 0000.0001) %MON dynstat_uvel_min             =   0.0000000000000E+00
(PID.TID 0000.0001) %MON dynstat_uvel_mean            =   0.0000000000000E+00
(PID.TID 0000.0001) %MON dynstat_uvel_sd              =   0.0000000000000E+00
(PID.TID 0000.0001) %MON dynstat_uvel_del2            =   0.0000000000000E+00
(PID.TID 0000.0001) %MON dynstat_vvel_max             =   0.0000000000000E+00
(PID.TID 0000.0001) %MON dynstat_vvel_min             =   0.0000000000000E+00
(PID.TID 0000.0001) %MON dynstat_vvel_mean            =   0.0000000000000E+00
(PID.TID 0000.0001) %MON dynstat_vvel_sd              =   0.0000000000000E+00
(PID.TID 0000.0001) %MON dynstat_vvel_del2            =   0.0000000000000E+00
(PID.TID 0000.0001) %MON dynstat_wvel_max             =  -0.0000000000000E+00
(PID.TID 0000.0001) %MON dynstat_wvel_min             =  -0.0000000000000E+00
(PID.TID 0000.0001) %MON dynstat_wvel_mean            =   0.0000000000000E+00
(PID.TID 0000.0001) %MON dynstat_wvel_sd              =   0.0000000000000E+00
(PID.TID 0000.0001) %MON dynstat_wvel_del2            =   0.0000000000000E+00
(PID.TID 0000.0001) %MON dynstat_theta_max            =   1.6580000000000E+01
(PID.TID 0000.0001) %MON dynstat_theta_min            =   4.1845842696629E+00
(PID.TID 0000.0001) %MON dynstat_theta_mean           =   8.3857247916225E+00
(PID.TID 0000.0001) %MON dynstat_theta_sd             =   3.8618293228512E+00
(PID.TID 0000.0001) %MON dynstat_theta_del2           =   0.0000000000000E+00
(PID.TID 0000.0001) %MON dynstat_salt_max             =   3.4476101123596E+01
(PID.TID 0000.0001) %MON dynstat_salt_min             =   3.3630000000000E+01
(PID.TID 0000.0001) %MON dynstat_salt_mean            =   3.4127681742212E+01
(PID.TID 0000.0001) %MON dynstat_salt_sd              =   2.8356926271957E-01
(PID.TID 0000.0001) %MON dynstat_salt_del2            =   0.0000000000000E+00
(PID.TID 0000.0001) %MON trAdv_CFL_u_max              =   0.0000000000000E+00
(PID.TID 0000.0001) %MON trAdv_CFL_v_max              =   0.0000000000000E+00
(PID.TID 0000.0001) %MON trAdv_CFL_w_max              =   0.0000000000000E+00
(PID.TID 0000.0001) %MON advcfl_uvel_max              =   0.0000000000000E+00
(PID.TID 0000.0001) %MON advcfl_vvel_max              =   0.0000000000000E+00
(PID.TID 0000.0001) %MON advcfl_wvel_max              =   0.0000000000000E+00
(PID.TID 0000.0001) %MON advcfl_W_hf_max              =   0.0000000000000E+00
(PID.TID 0000.0001) %MON pe_b_mean                    =   0.0000000000000E+00
(PID.TID 0000.0001) %MON ke_max                       =   0.0000000000000E+00
(PID.TID 0000.0001) %MON ke_mean                      =   0.0000000000000E+00
(PID.TID 0000.0001) %MON ke_vol                       =   1.0416098804501E+14
(PID.TID 0000.0001) %MON vort_r_min                   =   0.0000000000000E+00
(PID.TID 0000.0001) %MON vort_r_max                   =   0.0000000000000E+00
(PID.TID 0000.0001) %MON vort_a_mean                  =   6.9456055905738E-04
(PID.TID 0000.0001) %MON vort_a_sd                    =   7.7452678163335E-07
(PID.TID 0000.0001) %MON vort_p_mean                  =   7.0575608364114E-04
(PID.TID 0000.0001) %MON vort_p_sd                    =   1.5175105787104E-04
(PID.TID 0000.0001) %MON surfExpan_theta_mean         =   0.0000000000000E+00
(PID.TID 0000.0001) %MON surfExpan_salt_mean          =   0.0000000000000E+00
(PID.TID 0000.0001) // =======================================================
(PID.TID 0000.0001) // End MONITOR dynamic field statistics
(PID.TID 0000.0001) // =======================================================
(PID.TID 0000.0001) // =======================================================
(PID.TID 0000.0001) // Begin OBCS MONITOR field statistics
(PID.TID 0000.0001) // =======================================================
(PID.TID 0000.0001) %MON obc_S_vVel_max               =   0.0000000000000E+00
(PID.TID 0000.0001) %MON obc_S_vVel_min               =   0.0000000000000E+00
(PID.TID 0000.0001) %MON obc_S_vVel_mean              =   0.0000000000000E+00
(PID.TID 0000.0001) %MON obc_S_vVel_sd                =   0.0000000000000E+00
(PID.TID 0000.0001) %MON obc_S_vVel_Int               =   0.0000000000000E+00
(PID.TID 0000.0001) // =======================================================
(PID.TID 0000.0001) // End OBCS MONITOR field statistics
(PID.TID 0000.0001) // =======================================================
 EXTERNAL_FIELDS_LOAD,         0 : iP,iLd,i0,i1=   60    0   60    1 ; Wght=  0.5000000000  0.5000000000
 EXTERNAL_FIELDS_LOAD, it=         0 : Reading new data, i0,i1=   60    1 (prev=   60    0 )
(PID.TID 0000.0001)  MDS_READ_FIELD: opening global file: ../input/merid_halfgauss2p5hr_240x180.bin
(PID.TID 0000.0001)  MDS_READ_FIELD: opening global file: ../input/merid_halfgauss2p5hr_240x180.bin
(PID.TID 0000.0001) SOLVE_FOR_PRESSURE: putPmEinXvector =    F
 cg2d: Sum(rhs),rhsMax =   2.13162820728030E-14  3.72347419316442E-06
 EXTERNAL_FIELDS_LOAD,         1 : iP,iLd,i0,i1=   60    1   60    1 ; Wght=  0.4000000000  0.6000000000
 cg2d: Sum(rhs),rhsMax =  -1.59872115546023E-14  1.23362840886337E-05
 EXTERNAL_FIELDS_LOAD,         2 : iP,iLd,i0,i1=   60    1   60    1 ; Wght=  0.3000000000  0.7000000000
 cg2d: Sum(rhs),rhsMax =  -6.92779167366098E-14  2.65438108593082E-05
 EXTERNAL_FIELDS_LOAD,         3 : iP,iLd,i0,i1=   60    1   60    1 ; Wght=  0.2000000000  0.8000000000
 cg2d: Sum(rhs),rhsMax =  -2.06057393370429E-13  4.69922098129312E-05
 EXTERNAL_FIELDS_LOAD,         4 : iP,iLd,i0,i1=   60    1   60    1 ; Wght=  0.1000000000  0.9000000000
 cg2d: Sum(rhs),rhsMax =  -1.50990331349021E-13  7.42703389170221E-05
 EXTERNAL_FIELDS_LOAD,         5 : iP,iLd,i0,i1=   60    1    1    2 ; Wght=  1.0000000000  0.0000000000
 EXTERNAL_FIELDS_LOAD, it=         5 : Reading new data, i0,i1=    1    2 (prev=   60    1 )
(PID.TID 0000.0001)  MDS_READ_FIELD: opening global file: ../input/merid_halfgauss2p5hr_240x180.bin
(PID.TID 0000.0001)  MDS_READ_FIELD: opening global file: ../input/merid_halfgauss2p5hr_240x180.bin
 cg2d: Sum(rhs),rhsMax =  -4.97379915032070E-14  1.08905154465997E-04
 EXTERNAL_FIELDS_LOAD,         6 : iP,iLd,i0,i1=    1    2    1    2 ; Wght=  0.9000000000  0.1000000000
 cg2d: Sum(rhs),rhsMax =   1.42108547152020E-14  1.50800820037984E-04
 EXTERNAL_FIELDS_LOAD,         7 : iP,iLd,i0,i1=    1    2    1    2 ; Wght=  0.8000000000  0.2000000000
 cg2d: Sum(rhs),rhsMax =   1.06581410364015E-14  1.99969752406812E-04
 EXTERNAL_FIELDS_LOAD,         8 : iP,iLd,i0,i1=    1    2    1    2 ; Wght=  0.7000000000  0.3000000000
 cg2d: Sum(rhs),rhsMax =  -5.50670620214078E-14  2.56355055014224E-04
 EXTERNAL_FIELDS_LOAD,         9 : iP,iLd,i0,i1=    1    2    1    2 ; Wght=  0.6000000000  0.4000000000
 cg2d: Sum(rhs),rhsMax =   3.55271367880050E-14  3.19825885292577E-04
 EXTERNAL_FIELDS_LOAD,        10 : iP,iLd,i0,i1=    1    2    1    2 ; Wght=  0.5000000000  0.5000000000
 cg2d: Sum(rhs),rhsMax =  -4.26325641456060E-14  3.90176438146908E-04
 EXTERNAL_FIELDS_LOAD,        11 : iP,iLd,i0,i1=    1    2    1    2 ; Wght=  0.4000000000  0.6000000000
 cg2d: Sum(rhs),rhsMax =   1.08357767203415E-13  4.67126494333428E-04
 EXTERNAL_FIELDS_LOAD,        12 : iP,iLd,i0,i1=    1    2    1    2 ; Wght=  0.3000000000  0.7000000000
 cg2d: Sum(rhs),rhsMax =   3.49942297361849E-13  5.50324023997194E-04
 EXTERNAL_FIELDS_LOAD,        13 : iP,iLd,i0,i1=    1    2    1    2 ; Wght=  0.2000000000  0.8000000000
 cg2d: Sum(rhs),rhsMax =   2.68229882749438E-13  6.39349985043066E-04
 EXTERNAL_FIELDS_LOAD,        14 : iP,iLd,i0,i1=    1    2    1    2 ; Wght=  0.1000000000  0.9000000000
 cg2d: Sum(rhs),rhsMax =  -3.23296944770846E-13  7.33725154986256E-04
 EXTERNAL_FIELDS_LOAD,        15 : iP,iLd,i0,i1=    1    2    2    3 ; Wght=  1.0000000000  0.0000000000
 EXTERNAL_FIELDS_LOAD, it=        15 : Reading new data, i0,i1=    2    3 (prev=    1    2 )
(PID.TID 0000.0001)  MDS_READ_FIELD: opening global file: ../input/merid_halfgauss2p5hr_240x180.bin
(PID.TID 0000.0001)  MDS_READ_FIELD: opening global file: ../input/merid_halfgauss2p5hr_240x180.bin
 cg2d: Sum(rhs),rhsMax =   9.94759830064140E-14  8.32918598024245E-04
 EXTERNAL_FIELDS_LOAD,        16 : iP,iLd,i0,i1=    2    3    2    3 ; Wght=  0.9000000000  0.1000000000
 cg2d: Sum(rhs),rhsMax =   2.14939177567430E-13  9.36572757027403E-04
 EXTERNAL_FIELDS_LOAD,        17 : iP,iLd,i0,i1=    2    3    2    3 ; Wght=  0.8000000000  0.2000000000
 cg2d: Sum(rhs),rhsMax =   3.46389583683049E-13  1.04422764089256E-03
 EXTERNAL_FIELDS_LOAD,        18 : iP,iLd,i0,i1=    2    3    2    3 ; Wght=  0.7000000000  0.3000000000
 cg2d: Sum(rhs),rhsMax =   3.41060513164848E-13  1.15539737478611E-03
 EXTERNAL_FIELDS_LOAD,        19 : iP,iLd,i0,i1=    2    3    2    3 ; Wght=  0.6000000000  0.4000000000
 cg2d: Sum(rhs),rhsMax =   1.06581410364015E-13  1.26957944418374E-03
(PID.TID 0000.0001)      cg2d_init_res =   7.97602875184148E-01
(PID.TID 0000.0001)      cg2d_iters(min,last) =      -1      31
(PID.TID 0000.0001)      cg2d_last_res =   6.17936880038049E-08
(PID.TID 0000.0001) // =======================================================
(PID.TID 0000.0001) // Begin MONITOR dynamic field statistics
(PID.TID 0000.0001) // =======================================================
(PID.TID 0000.0001) %MON time_tsnumber                =                    20
(PID.TID 0000.0001) %MON time_secondsf                =   1.2000000000000E+03
(PID.TID 0000.0001) %MON dynstat_eta_max              =   1.1411607875183E-03
(PID.TID 0000.0001) %MON dynstat_eta_min              =  -2.2718805266044E-04
(PID.TID 0000.0001) %MON dynstat_eta_mean             =   1.6010489421818E-21
(PID.TID 0000.0001) %MON dynstat_eta_sd               =   5.4827452465785E-05
(PID.TID 0000.0001) %MON dynstat_eta_del2             =   1.2059358017795E-07
(PID.TID 0000.0001) %MON dynstat_uvel_max             =   1.8253237818717E-03
(PID.TID 0000.0001) %MON dynstat_uvel_min             =  -8.9073623961143E-04
(PID.TID 0000.0001) %MON dynstat_uvel_mean            =   2.7790797595837E-06
(PID.TID 0000.0001) %MON dynstat_uvel_sd              =   5.8978517939508E-05
(PID.TID 0000.0001) %MON dynstat_uvel_del2            =   1.0967323711671E-08
(PID.TID 0000.0001) %MON dynstat_vvel_max             =   3.4451608518176E-03
(PID.TID 0000.0001) %MON dynstat_vvel_min             =  -1.0279177425974E-03
(PID.TID 0000.0001) %MON dynstat_vvel_mean            =   7.1906386931855E-06
(PID.TID 0000.0001) %MON dynstat_vvel_sd              =   1.6389241577090E-04
(PID.TID 0000.0001) %MON dynstat_vvel_del2            =   1.6231804991355E-08
(PID.TID 0000.0001) %MON dynstat_wvel_max             =   1.7116994498549E-06
(PID.TID 0000.0001) %MON dynstat_wvel_min             =  -2.6738661044664E-06
(PID.TID 0000.0001) %MON dynstat_wvel_mean            =  -1.0050058422862E-08
(PID.TID 0000.0001) %MON dynstat_wvel_sd              =   6.1979254394613E-08
(PID.TID 0000.0001) %MON dynstat_wvel_del2            =   1.4304190134339E-10
(PID.TID 0000.0001) %MON dynstat_theta_max            =   1.6579999670977E+01
(PID.TID 0000.0001) %MON dynstat_theta_min            =   4.1845846224365E+00
(PID.TID 0000.0001) %MON dynstat_theta_mean           =   8.3857248620562E+00
(PID.TID 0000.0001) %MON dynstat_theta_sd             =   3.8618278932093E+00
(PID.TID 0000.0001) %MON dynstat_theta_del2           =   3.5683211793815E-09
(PID.TID 0000.0001) %MON dynstat_salt_max             =   3.4476101087639E+01
(PID.TID 0000.0001) %MON dynstat_salt_min             =   3.3630000000000E+01
(PID.TID 0000.0001) %MON dynstat_salt_mean            =   3.4127681737809E+01
(PID.TID 0000.0001) %MON dynstat_salt_sd              =   2.8356919283919E-01
(PID.TID 0000.0001) %MON dynstat_salt_del2            =   1.5915663877553E-10
(PID.TID 0000.0001) %MON trAdv_CFL_u_max              =   4.9494054457313E-05
(PID.TID 0000.0001) %MON trAdv_CFL_v_max              =   8.1514769442276E-05
(PID.TID 0000.0001) %MON trAdv_CFL_w_max              =   7.7791340832257E-05
(PID.TID 0000.0001) %MON advcfl_uvel_max              =   5.4989293757590E-05
(PID.TID 0000.0001) %MON advcfl_vvel_max              =   8.8309153523039E-05
(PID.TID 0000.0001) %MON advcfl_wvel_max              =   1.0270196699130E-04
(PID.TID 0000.0001) %MON advcfl_W_hf_max              =   8.0215983133992E-05
(PID.TID 0000.0001) %MON pe_b_mean                    =   2.2515606590761E-11
(PID.TID 0000.0001) %MON ke_max                       =   5.8736563930945E-06
(PID.TID 0000.0001) %MON ke_mean                      =   1.5177219823767E-08
(PID.TID 0000.0001) %MON ke_vol                       =   1.0416098804501E+14
(PID.TID 0000.0001) %MON vort_r_min                   =  -1.9397907364568E-06
(PID.TID 0000.0001) %MON vort_r_max                   =   2.3979700401898E-06
(PID.TID 0000.0001) %MON vort_a_mean                  =   6.9456055905738E-04
(PID.TID 0000.0001) %MON vort_a_sd                    =   7.7458034496003E-07
(PID.TID 0000.0001) %MON vort_p_mean                  =   7.0575608364114E-04
(PID.TID 0000.0001) %MON vort_p_sd                    =   1.5175106315594E-04
(PID.TID 0000.0001) %MON surfExpan_theta_mean         =   5.1022987378596E-14
(PID.TID 0000.0001) %MON surfExpan_salt_mean          =   8.1481955093182E-22
(PID.TID 0000.0001) // =======================================================
(PID.TID 0000.0001) // End MONITOR dynamic field statistics
(PID.TID 0000.0001) // =======================================================
(PID.TID 0000.0001) // =======================================================
(PID.TID 0000.0001) // Begin OBCS MONITOR field statistics
(PID.TID 0000.0001) // =======================================================
(PID.TID 0000.0001) %MON obc_S_vVel_max               =   2.0024073941493E-03
(PID.TID 0000.0001) %MON obc_S_vVel_min               =  -4.3709116312110E-06
(PID.TID 0000.0001) %MON obc_S_vVel_mean              =   2.8627069552070E-21
(PID.TID 0000.0001) %MON obc_S_vVel_sd                =   8.9640435997957E-05
(PID.TID 0000.0001) %MON obc_S_vVel_Int               =   1.3683498778505E-12
(PID.TID 0000.0001) // =======================================================
(PID.TID 0000.0001) // End OBCS MONITOR field statistics
(PID.TID 0000.0001) // =======================================================
 EXTERNAL_FIELDS_LOAD,        20 : iP,iLd,i0,i1=    2    3    2    3 ; Wght=  0.5000000000  0.5000000000
 cg2d: Sum(rhs),rhsMax =   3.73034936274053E-14  1.38626230451752E-03
 EXTERNAL_FIELDS_LOAD,        21 : iP,iLd,i0,i1=    2    3    2    3 ; Wght=  0.4000000000  0.6000000000
 cg2d: Sum(rhs),rhsMax =   1.79412040779425E-13  1.50493224999308E-03
 EXTERNAL_FIELDS_LOAD,        22 : iP,iLd,i0,i1=    2    3    2    3 ; Wght=  0.3000000000  0.7000000000
 cg2d: Sum(rhs),rhsMax =  -4.81392703477468E-13  1.62507949248441E-03
 EXTERNAL_FIELDS_LOAD,        23 : iP,iLd,i0,i1=    2    3    2    3 ; Wght=  0.2000000000  0.8000000000
 cg2d: Sum(rhs),rhsMax =  -1.40332190312620E-13  1.74620353101215E-03
 EXTERNAL_FIELDS_LOAD,        24 : iP,iLd,i0,i1=    2    3    2    3 ; Wght=  0.1000000000  0.9000000000
 cg2d: Sum(rhs),rhsMax =  -9.41469124882133E-14  1.86781796231644E-03
 EXTERNAL_FIELDS_LOAD,        25 : iP,iLd,i0,i1=    2    3    3    4 ; Wght=  1.0000000000  0.0000000000
 EXTERNAL_FIELDS_LOAD, it=        25 : Reading new data, i0,i1=    3    4 (prev=    2    3 )
(PID.TID 0000.0001)  MDS_READ_FIELD: opening global file: ../input/merid_halfgauss2p5hr_240x180.bin
(PID.TID 0000.0001)  MDS_READ_FIELD: opening global file: ../input/merid_halfgauss2p5hr_240x180.bin
 cg2d: Sum(rhs),rhsMax =   1.11910480882216E-13  1.98945490673778E-03
 EXTERNAL_FIELDS_LOAD,        26 : iP,iLd,i0,i1=    3    4    3    4 ; Wght=  0.9000000000  0.1000000000
 cg2d: Sum(rhs),rhsMax =  -2.52242671194836E-13  2.11092986212460E-03
 EXTERNAL_FIELDS_LOAD,        27 : iP,iLd,i0,i1=    3    4    3    4 ; Wght=  0.8000000000  0.2000000000
 cg2d: Sum(rhs),rhsMax =   0.00000000000000E+00  2.23200005290498E-03
 EXTERNAL_FIELDS_LOAD,        28 : iP,iLd,i0,i1=    3    4    3    4 ; Wght=  0.7000000000  0.3000000000
 cg2d: Sum(rhs),rhsMax =   2.70006239588838E-13  2.35244883236672E-03
 EXTERNAL_FIELDS_LOAD,        29 : iP,iLd,i0,i1=    3    4    3    4 ; Wght=  0.6000000000  0.4000000000
 cg2d: Sum(rhs),rhsMax =  -1.24344978758018E-14  2.47208911805511E-03
 EXTERNAL_FIELDS_LOAD,        30 : iP,iLd,i0,i1=    3    4    3    4 ; Wght=  0.5000000000  0.5000000000
 cg2d: Sum(rhs),rhsMax =  -3.71258579434652E-13  2.59076550571808E-03
 EXTERNAL_FIELDS_LOAD,        31 : iP,iLd,i0,i1=    3    4    3    4 ; Wght=  0.4000000000  0.6000000000
 cg2d: Sum(rhs),rhsMax =   1.77635683940025E-13  2.70835615718538E-03
 EXTERNAL_FIELDS_LOAD,        32 : iP,iLd,i0,i1=    3    4    3    4 ; Wght=  0.3000000000  0.7000000000
 cg2d: Sum(rhs),rhsMax =  -1.43884903991420E-13  2.82477424099801E-03
 EXTERNAL_FIELDS_LOAD,        33 : iP,iLd,i0,i1=    3    4    3    4 ; Wght=  0.2000000000  0.8000000000
 cg2d: Sum(rhs),rhsMax =  -1.03028696685215E-13  2.93996875444360E-03
 EXTERNAL_FIELDS_LOAD,        34 : iP,iLd,i0,i1=    3    4    3    4 ; Wght=  0.1000000000  0.9000000000
 cg2d: Sum(rhs),rhsMax =   2.39808173319034E-13  3.05392460852961E-03
 EXTERNAL_FIELDS_LOAD,        35 : iP,iLd,i0,i1=    3    4    4    5 ; Wght=  1.0000000000  0.0000000000
 EXTERNAL_FIELDS_LOAD, it=        35 : Reading new data, i0,i1=    4    5 (prev=    3    4 )
(PID.TID 0000.0001)  MDS_READ_FIELD: opening global file: ../input/merid_halfgauss2p5hr_240x180.bin
(PID.TID 0000.0001)  MDS_READ_FIELD: opening global file: ../input/merid_halfgauss2p5hr_240x180.bin
 cg2d: Sum(rhs),rhsMax =   2.02504679691629E-13  3.16666191805150E-03
 EXTERNAL_FIELDS_LOAD,        36 : iP,iLd,i0,i1=    4    5    4    5 ; Wght=  0.9000000000  0.1000000000
 cg2d: Sum(rhs),rhsMax =  -1.95399252334028E-13  3.27853342690811E-03
 EXTERNAL_FIELDS_LOAD,        37 : iP,iLd,i0,i1=    4    5    4    5 ; Wght=  0.8000000000  0.2000000000
 cg2d: Sum(rhs),rhsMax =  -1.56319401867222E-13  3.38982579482242E-03
 EXTERNAL_FIELDS_LOAD,        38 : iP,iLd,i0,i1=    4    5    4    5 ; Wght=  0.7000000000  0.3000000000
 cg2d: Sum(rhs),rhsMax =  -1.66977542903624E-13  3.50084887893290E-03
 EXTERNAL_FIELDS_LOAD,        39 : iP,iLd,i0,i1=    4    5    4    5 ; Wght=  0.6000000000  0.4000000000
 cg2d: Sum(rhs),rhsMax =   4.61852778244065E-13  3.61193173922368E-03
(PID.TID 0000.0001)      cg2d_init_res =   5.08856135255645E-01
(PID.TID 0000.0001)      cg2d_iters(min,last) =      -1      30
(PID.TID 0000.0001)      cg2d_last_res =   7.30121254820965E-08
(PID.TID 0000.0001) // =======================================================
(PID.TID 0000.0001) // Begin MONITOR dynamic field statistics
(PID.TID 0000.0001) // =======================================================
(PID.TID 0000.0001) %MON time_tsnumber                =                    40
(PID.TID 0000.0001) %MON time_secondsf                =   2.4000000000000E+03
(PID.TID 0000.0001) %MON dynstat_eta_max              =   3.2529722737956E-03
(PID.TID 0000.0001) %MON dynstat_eta_min              =  -1.0247188993604E-03
(PID.TID 0000.0001) %MON dynstat_eta_mean             =   4.1169829941818E-20
(PID.TID 0000.0001) %MON dynstat_eta_sd               =   1.8611425916491E-04
(PID.TID 0000.0001) %MON dynstat_eta_del2             =   2.3612004183216E-07
(PID.TID 0000.0001) %MON dynstat_uvel_max             =   6.1381095690678E-03
(PID.TID 0000.0001) %MON dynstat_uvel_min             =  -4.0351701513840E-03
(PID.TID 0000.0001) %MON dynstat_uvel_mean            =   1.1675141944133E-05
(PID.TID 0000.0001) %MON dynstat_uvel_sd              =   2.9675376424364E-04
(PID.TID 0000.0001) %MON dynstat_uvel_del2            =   4.6120624688725E-08
(PID.TID 0000.0001) %MON dynstat_vvel_max             =   1.1494329787759E-02
(PID.TID 0000.0001) %MON dynstat_vvel_min             =  -3.9936276842581E-03
(PID.TID 0000.0001) %MON dynstat_vvel_mean            =   1.4427626786644E-05
(PID.TID 0000.0001) %MON dynstat_vvel_sd              =   4.2115318857995E-04
(PID.TID 0000.0001) %MON dynstat_vvel_del2            =   4.5518287570594E-08
(PID.TID 0000.0001) %MON dynstat_wvel_max             =   4.4027310365934E-06
(PID.TID 0000.0001) %MON dynstat_wvel_min             =  -7.6136537373673E-06
(PID.TID 0000.0001) %MON dynstat_wvel_mean            =  -2.9621810366754E-08
(PID.TID 0000.0001) %MON dynstat_wvel_sd              =   1.4636661582462E-07
(PID.TID 0000.0001) %MON dynstat_wvel_del2            =   3.5644809362576E-10
(PID.TID 0000.0001) %MON dynstat_theta_max            =   1.6579998737387E+01
(PID.TID 0000.0001) %MON dynstat_theta_min            =   4.1845849918620E+00
(PID.TID 0000.0001) %MON dynstat_theta_mean           =   8.3857252571570E+00
(PID.TID 0000.0001) %MON dynstat_theta_sd             =   3.8618267010798E+00
(PID.TID 0000.0001) %MON dynstat_theta_del2           =   9.2155861759275E-09
(PID.TID 0000.0001) %MON dynstat_salt_max             =   3.4476101049986E+01
(PID.TID 0000.0001) %MON dynstat_salt_min             =   3.3630000000000E+01
(PID.TID 0000.0001) %MON dynstat_salt_mean            =   3.4127681712781E+01
(PID.TID 0000.0001) %MON dynstat_salt_sd              =   2.8356913328493E-01
(PID.TID 0000.0001) %MON dynstat_salt_del2            =   3.9045698196416E-10
(PID.TID 0000.0001) %MON trAdv_CFL_u_max              =   1.7749483368377E-04
(PID.TID 0000.0001) %MON trAdv_CFL_v_max              =   2.8008095004453E-04
(PID.TID 0000.0001) %MON trAdv_CFL_w_max              =   2.3169270157405E-04
(PID.TID 0000.0001) %MON advcfl_uvel_max              =   1.8491530848496E-04
(PID.TID 0000.0001) %MON advcfl_vvel_max              =   2.9463197149013E-04
(PID.TID 0000.0001) %MON advcfl_wvel_max              =   2.1753296392478E-04
(PID.TID 0000.0001) %MON advcfl_W_hf_max              =   2.2840961212102E-04
(PID.TID 0000.0001) %MON pe_b_mean                    =   2.5944590091796E-10
(PID.TID 0000.0001) %MON ke_max                       =   6.2136455988863E-05
(PID.TID 0000.0001) %MON ke_mean                      =   1.3270994222563E-07
(PID.TID 0000.0001) %MON ke_vol                       =   1.0416098804501E+14
(PID.TID 0000.0001) %MON vort_r_min                   =  -6.5701854355698E-06
(PID.TID 0000.0001) %MON vort_r_max                   =   7.7474885712817E-06
(PID.TID 0000.0001) %MON vort_a_mean                  =   6.9456055905738E-04
(PID.TID 0000.0001) %MON vort_a_sd                    =   7.7488896289762E-07
(PID.TID 0000.0001) %MON vort_p_mean                  =   7.0575608364114E-04
(PID.TID 0000.0001) %MON vort_p_sd                    =   1.5175092187687E-04
(PID.TID 0000.0001) %MON surfExpan_theta_mean         =   1.1437425932236E-13
(PID.TID 0000.0001) %MON surfExpan_salt_mean          =  -3.8310813973636E-21
(PID.TID 0000.0001) // =======================================================
(PID.TID 0000.0001) // End MONITOR dynamic field statistics
(PID.TID 0000.0001) // =======================================================
(PID.TID 0000.0001) // =======================================================
(PID.TID 0000.0001) // Begin OBCS MONITOR field statistics
(PID.TID 0000.0001) // =======================================================
(PID.TID 0000.0001) %MON obc_S_vVel_max               =   5.5499097026841E-03
(PID.TID 0000.0001) %MON obc_S_vVel_min               =  -1.3566478442570E-05
(PID.TID 0000.0001) %MON obc_S_vVel_mean              =  -6.4591959641981E-20
(PID.TID 0000.0001) %MON obc_S_vVel_sd                =   2.4845915368503E-04
(PID.TID 0000.0001) %MON obc_S_vVel_Int               =  -3.0874414136406E-11
(PID.TID 0000.0001) // =======================================================
(PID.TID 0000.0001) // End OBCS MONITOR field statistics
(PID.TID 0000.0001) // =======================================================
 EXTERNAL_FIELDS_LOAD,        40 : iP,iLd,i0,i1=    4    5    4    5 ; Wght=  0.5000000000  0.5000000000
 cg2d: Sum(rhs),rhsMax =  -2.06057393370429E-13  3.72341689016129E-03
 EXTERNAL_FIELDS_LOAD,        41 : iP,iLd,i0,i1=    4    5    4    5 ; Wght=  0.4000000000  0.6000000000
 cg2d: Sum(rhs),rhsMax =   9.23705556488130E-14  3.83565431032817E-03
 EXTERNAL_FIELDS_LOAD,        42 : iP,iLd,i0,i1=    4    5    4    5 ; Wght=  0.3000000000  0.7000000000
 cg2d: Sum(rhs),rhsMax =   2.84217094304040E-14  3.94899522885569E-03
 EXTERNAL_FIELDS_LOAD,        43 : iP,iLd,i0,i1=    4    5    4    5 ; Wght=  0.2000000000  0.8000000000
 cg2d: Sum(rhs),rhsMax =  -2.84217094304040E-13  4.06378576078277E-03
 EXTERNAL_FIELDS_LOAD,        44 : iP,iLd,i0,i1=    4    5    4    5 ; Wght=  0.1000000000  0.9000000000
 cg2d: Sum(rhs),rhsMax =   4.72510919280467E-13  4.18036050256175E-03
 EXTERNAL_FIELDS_LOAD,        45 : iP,iLd,i0,i1=    4    5    5    6 ; Wght=  1.0000000000  0.0000000000
 EXTERNAL_FIELDS_LOAD, it=        45 : Reading new data, i0,i1=    5    6 (prev=    4    5 )
(PID.TID 0000.0001)  MDS_READ_FIELD: opening global file: ../input/merid_halfgauss2p5hr_240x180.bin
(PID.TID 0000.0001)  MDS_READ_FIELD: opening global file: ../input/merid_halfgauss2p5hr_240x180.bin
 cg2d: Sum(rhs),rhsMax =  -4.26325641456060E-14  4.29903623527152E-03
 EXTERNAL_FIELDS_LOAD,        46 : iP,iLd,i0,i1=    5    6    5    6 ; Wght=  0.9000000000  0.1000000000
 cg2d: Sum(rhs),rhsMax =   9.23705556488130E-14  4.42042825100931E-03
 EXTERNAL_FIELDS_LOAD,        47 : iP,iLd,i0,i1=    5    6    5    6 ; Wght=  0.8000000000  0.2000000000
 cg2d: Sum(rhs),rhsMax =  -1.91846538655227E-13  4.54501733092981E-03
 EXTERNAL_FIELDS_LOAD,        48 : iP,iLd,i0,i1=    5    6    5    6 ; Wght=  0.7000000000  0.3000000000
 cg2d: Sum(rhs),rhsMax =   3.05533376376843E-13  4.68018088914569E-03
 EXTERNAL_FIELDS_LOAD,        49 : iP,iLd,i0,i1=    5    6    5    6 ; Wght=  0.6000000000  0.4000000000
 cg2d: Sum(rhs),rhsMax =  -1.52766688188422E-13  4.83259332481189E-03
 EXTERNAL_FIELDS_LOAD,        50 : iP,iLd,i0,i1=    5    6    5    6 ; Wght=  0.5000000000  0.5000000000
 cg2d: Sum(rhs),rhsMax =   1.42108547152020E-13  4.99030292858320E-03
 EXTERNAL_FIELDS_LOAD,        51 : iP,iLd,i0,i1=    5    6    5    6 ; Wght=  0.4000000000  0.6000000000
 cg2d: Sum(rhs),rhsMax =   4.05009359383257E-13  5.18889724991576E-03
 EXTERNAL_FIELDS_LOAD,        52 : iP,iLd,i0,i1=    5    6    5    6 ; Wght=  0.3000000000  0.7000000000
 cg2d: Sum(rhs),rhsMax =  -2.48689957516035E-13  5.39398167934974E-03
 EXTERNAL_FIELDS_LOAD,        53 : iP,iLd,i0,i1=    5    6    5    6 ; Wght=  0.2000000000  0.8000000000
 cg2d: Sum(rhs),rhsMax =  -1.10134124042816E-13  5.60482214099299E-03
 EXTERNAL_FIELDS_LOAD,        54 : iP,iLd,i0,i1=    5    6    5    6 ; Wght=  0.1000000000  0.9000000000
 cg2d: Sum(rhs),rhsMax =   2.16715534406831E-13  5.82148707203255E-03
 EXTERNAL_FIELDS_LOAD,        55 : iP,iLd,i0,i1=    5    6    6    7 ; Wght=  1.0000000000  0.0000000000
 EXTERNAL_FIELDS_LOAD, it=        55 : Reading new data, i0,i1=    6    7 (prev=    5    6 )
(PID.TID 0000.0001)  MDS_READ_FIELD: opening global file: ../input/merid_halfgauss2p5hr_240x180.bin
(PID.TID 0000.0001)  MDS_READ_FIELD: opening global file: ../input/merid_halfgauss2p5hr_240x180.bin
 cg2d: Sum(rhs),rhsMax =  -2.55795384873636E-13  6.04401588648611E-03
 EXTERNAL_FIELDS_LOAD,        56 : iP,iLd,i0,i1=    6    7    6    7 ; Wght=  0.9000000000  0.1000000000
 cg2d: Sum(rhs),rhsMax =   2.62900812231237E-13  6.27274119662285E-03
 EXTERNAL_FIELDS_LOAD,        57 : iP,iLd,i0,i1=    6    7    6    7 ; Wght=  0.8000000000  0.2000000000
 cg2d: Sum(rhs),rhsMax =   1.88293824976427E-13  6.50785711783870E-03
 EXTERNAL_FIELDS_LOAD,        58 : iP,iLd,i0,i1=    6    7    6    7 ; Wght=  0.7000000000  0.3000000000
 cg2d: Sum(rhs),rhsMax =   3.33955085807247E-13  6.74951531109997E-03
 EXTERNAL_FIELDS_LOAD,        59 : iP,iLd,i0,i1=    6    7    6    7 ; Wght=  0.6000000000  0.4000000000
 cg2d: Sum(rhs),rhsMax =   1.13686837721616E-13  6.99782480380386E-03
(PID.TID 0000.0001)      cg2d_init_res =   4.27071365566987E-01
(PID.TID 0000.0001)      cg2d_iters(min,last) =      -1      29
(PID.TID 0000.0001)      cg2d_last_res =   9.43253345680636E-08
(PID.TID 0000.0001) // =======================================================
(PID.TID 0000.0001) // Begin MONITOR dynamic field statistics
(PID.TID 0000.0001) // =======================================================
(PID.TID 0000.0001) %MON time_tsnumber                =                    60
(PID.TID 0000.0001) %MON time_secondsf                =   3.6000000000000E+03
(PID.TID 0000.0001) %MON dynstat_eta_max              =   6.2727767937135E-03
(PID.TID 0000.0001) %MON dynstat_eta_min              =  -2.8363016359160E-03
(PID.TID 0000.0001) %MON dynstat_eta_mean             =   1.5370069844945E-20
(PID.TID 0000.0001) %MON dynstat_eta_sd               =   4.1059906330037E-04
(PID.TID 0000.0001) %MON dynstat_eta_del2             =   4.4404365108823E-07
(PID.TID 0000.0001) %MON dynstat_uvel_max             =   1.6664810092362E-02
(PID.TID 0000.0001) %MON dynstat_uvel_min             =  -1.0418016270063E-02
(PID.TID 0000.0001) %MON dynstat_uvel_mean            =   2.5428569279408E-05
(PID.TID 0000.0001) %MON dynstat_uvel_sd              =   7.7199619625053E-04
(PID.TID 0000.0001) %MON dynstat_uvel_del2            =   1.1948229326790E-07
(PID.TID 0000.0001) %MON dynstat_vvel_max             =   2.8149211250701E-02
(PID.TID 0000.0001) %MON dynstat_vvel_min             =  -8.2131712557998E-03
(PID.TID 0000.0001) %MON dynstat_vvel_mean            =   2.0945959209957E-05
(PID.TID 0000.0001) %MON dynstat_vvel_sd              =   7.3269663645645E-04
(PID.TID 0000.0001) %MON dynstat_vvel_del2            =   1.0424181562063E-07
(PID.TID 0000.0001) %MON dynstat_wvel_max             =   1.6217260904991E-05
(PID.TID 0000.0001) %MON dynstat_wvel_min             =  -1.6769706282725E-05
(PID.TID 0000.0001) %MON dynstat_wvel_mean            =  -5.2012540221118E-08
(PID.TID 0000.0001) %MON dynstat_wvel_sd              =   2.7923164016739E-07
(PID.TID 0000.0001) %MON dynstat_wvel_del2            =   7.4024268181918E-10
(PID.TID 0000.0001) %MON dynstat_theta_max            =   1.6579997390828E+01
(PID.TID 0000.0001) %MON dynstat_theta_min            =   4.1845853536225E+00
(PID.TID 0000.0001) %MON dynstat_theta_mean           =   8.3857260784719E+00
(PID.TID 0000.0001) %MON dynstat_theta_sd             =   3.8618258184807E+00
(PID.TID 0000.0001) %MON dynstat_theta_del2           =   1.9390944128719E-08
(PID.TID 0000.0001) %MON dynstat_salt_max             =   3.4476101013114E+01
(PID.TID 0000.0001) %MON dynstat_salt_min             =   3.3629997838811E+01
(PID.TID 0000.0001) %MON dynstat_salt_mean            =   3.4127681660559E+01
(PID.TID 0000.0001) %MON dynstat_salt_sd              =   2.8356908735894E-01
(PID.TID 0000.0001) %MON dynstat_salt_del2            =   7.8377538725742E-10
(PID.TID 0000.0001) %MON trAdv_CFL_u_max              =   4.8026543560516E-04
(PID.TID 0000.0001) %MON trAdv_CFL_v_max              =   6.9368785018742E-04
(PID.TID 0000.0001) %MON trAdv_CFL_w_max              =   5.4522460537791E-04
(PID.TID 0000.0001) %MON advcfl_uvel_max              =   5.0204032111149E-04
(PID.TID 0000.0001) %MON advcfl_vvel_max              =   7.2154338354888E-04
(PID.TID 0000.0001) %MON advcfl_wvel_max              =   4.7913446522073E-04
(PID.TID 0000.0001) %MON advcfl_W_hf_max              =   5.0309118848176E-04
(PID.TID 0000.0001) %MON pe_b_mean                    =   1.2627675882129E-09
(PID.TID 0000.0001) %MON ke_max                       =   3.5722965800419E-04
(PID.TID 0000.0001) %MON ke_mean                      =   5.6637490112293E-07
(PID.TID 0000.0001) %MON ke_vol                       =   1.0416098804501E+14
(PID.TID 0000.0001) %MON vort_r_min                   =  -1.4495195546697E-05
(PID.TID 0000.0001) %MON vort_r_max                   =   1.9800918904635E-05
(PID.TID 0000.0001) %MON vort_a_mean                  =   6.9456055905738E-04
(PID.TID 0000.0001) %MON vort_a_sd                    =   7.7607789858283E-07
(PID.TID 0000.0001) %MON vort_p_mean                  =   7.0575608364114E-04
(PID.TID 0000.0001) %MON vort_p_sd                    =   1.5175042242941E-04
(PID.TID 0000.0001) %MON surfExpan_theta_mean         =   3.7121574910833E-13
(PID.TID 0000.0001) %MON surfExpan_salt_mean          =  -4.6887861878182E-21
(PID.TID 0000.0001) // =======================================================
(PID.TID 0000.0001) // End MONITOR dynamic field statistics
(PID.TID 0000.0001) // =======================================================
(PID.TID 0000.0001) // =======================================================
(PID.TID 0000.0001) // Begin OBCS MONITOR field statistics
(PID.TID 0000.0001) // =======================================================
(PID.TID 0000.0001) %MON obc_S_vVel_max               =   9.5574960776907E-03
(PID.TID 0000.0001) %MON obc_S_vVel_min               =  -2.4710358214503E-05
(PID.TID 0000.0001) %MON obc_S_vVel_mean              =  -2.1799774765753E-20
(PID.TID 0000.0001) %MON obc_S_vVel_sd                =   4.2788011506247E-04
(PID.TID 0000.0001) %MON obc_S_vVel_Int               =  -1.0420109219922E-11
(PID.TID 0000.0001) // =======================================================
(PID.TID 0000.0001) // End OBCS MONITOR field statistics
(PID.TID 0000.0001) // =======================================================
 EXTERNAL_FIELDS_LOAD,        60 : iP,iLd,i0,i1=    6    7    6    7 ; Wght=  0.5000000000  0.5000000000
 cg2d: Sum(rhs),rhsMax =   4.61852778244065E-13  7.25285106500705E-03
 EXTERNAL_FIELDS_LOAD,        61 : iP,iLd,i0,i1=    6    7    6    7 ; Wght=  0.4000000000  0.6000000000
 cg2d: Sum(rhs),rhsMax =   1.52766688188422E-13  7.51461643778002E-03
 EXTERNAL_FIELDS_LOAD,        62 : iP,iLd,i0,i1=    6    7    6    7 ; Wght=  0.3000000000  0.7000000000
 cg2d: Sum(rhs),rhsMax =   5.22248910783674E-13  7.78310177006067E-03
 EXTERNAL_FIELDS_LOAD,        63 : iP,iLd,i0,i1=    6    7    6    7 ; Wght=  0.2000000000  0.8000000000
 cg2d: Sum(rhs),rhsMax =   2.77111666946439E-13  8.05824906352146E-03
 EXTERNAL_FIELDS_LOAD,        64 : iP,iLd,i0,i1=    6    7    6    7 ; Wght=  0.1000000000  0.9000000000
 cg2d: Sum(rhs),rhsMax =   2.87769807982841E-13  8.33996493868164E-03
 EXTERNAL_FIELDS_LOAD,        65 : iP,iLd,i0,i1=    6    7    7    8 ; Wght=  1.0000000000  0.0000000000
 EXTERNAL_FIELDS_LOAD, it=        65 : Reading new data, i0,i1=    7    8 (prev=    6    7 )
(PID.TID 0000.0001)  MDS_READ_FIELD: opening global file: ../input/merid_halfgauss2p5hr_240x180.bin
(PID.TID 0000.0001)  MDS_READ_FIELD: opening global file: ../input/merid_halfgauss2p5hr_240x180.bin
 cg2d: Sum(rhs),rhsMax =   1.91846538655227E-13  8.62812470490054E-03
 EXTERNAL_FIELDS_LOAD,        66 : iP,iLd,i0,i1=    7    8    7    8 ; Wght=  0.9000000000  0.1000000000
 cg2d: Sum(rhs),rhsMax =   1.24344978758018E-13  8.92286732485464E-03
 EXTERNAL_FIELDS_LOAD,        67 : iP,iLd,i0,i1=    7    8    7    8 ; Wght=  0.8000000000  0.2000000000
 cg2d: Sum(rhs),rhsMax =   3.76587649952853E-13  9.22421029084971E-03
 EXTERNAL_FIELDS_LOAD,        68 : iP,iLd,i0,i1=    7    8    7    8 ; Wght=  0.7000000000  0.3000000000
 cg2d: Sum(rhs),rhsMax =  -8.52651282912120E-14  9.53213972716592E-03
 EXTERNAL_FIELDS_LOAD,        69 : iP,iLd,i0,i1=    7    8    7    8 ; Wght=  0.6000000000  0.4000000000
 cg2d: Sum(rhs),rhsMax =   1.35003119794419E-13  9.84661315666093E-03
 EXTERNAL_FIELDS_LOAD,        70 : iP,iLd,i0,i1=    7    8    7    8 ; Wght=  0.5000000000  0.5000000000
 cg2d: Sum(rhs),rhsMax =   8.52651282912120E-14  1.01675609190179E-02
 EXTERNAL_FIELDS_LOAD,        71 : iP,iLd,i0,i1=    7    8    7    8 ; Wght=  0.4000000000  0.6000000000
 cg2d: Sum(rhs),rhsMax =   2.13162820728030E-13  1.04948881181580E-02
 EXTERNAL_FIELDS_LOAD,        72 : iP,iLd,i0,i1=    7    8    7    8 ; Wght=  0.3000000000  0.7000000000
 cg2d: Sum(rhs),rhsMax =   3.23296944770846E-13  1.08284769666410E-02
 EXTERNAL_FIELDS_LOAD,        73 : iP,iLd,i0,i1=    7    8    7    8 ; Wght=  0.2000000000  0.8000000000
 cg2d: Sum(rhs),rhsMax =  -1.77635683940025E-13  1.11681894045139E-02
 EXTERNAL_FIELDS_LOAD,        74 : iP,iLd,i0,i1=    7    8    7    8 ; Wght=  0.1000000000  0.9000000000
 cg2d: Sum(rhs),rhsMax =  -2.48689957516035E-14  1.15138698753816E-02
 EXTERNAL_FIELDS_LOAD,        75 : iP,iLd,i0,i1=    7    8    8    9 ; Wght=  1.0000000000  0.0000000000
 EXTERNAL_FIELDS_LOAD, it=        75 : Reading new data, i0,i1=    8    9 (prev=    7    8 )
(PID.TID 0000.0001)  MDS_READ_FIELD: opening global file: ../input/merid_halfgauss2p5hr_240x180.bin
(PID.TID 0000.0001)  MDS_READ_FIELD: opening global file: ../input/merid_halfgauss2p5hr_240x180.bin
 cg2d: Sum(rhs),rhsMax =   9.94759830064140E-14  1.18653481527167E-02
 EXTERNAL_FIELDS_LOAD,        76 : iP,iLd,i0,i1=    8    9    8    9 ; Wght=  0.9000000000  0.1000000000
 cg2d: Sum(rhs),rhsMax =  -4.26325641456060E-14  1.22226639754216E-02
 EXTERNAL_FIELDS_LOAD,        77 : iP,iLd,i0,i1=    8    9    8    9 ; Wght=  0.8000000000  0.2000000000
 cg2d: Sum(rhs),rhsMax =   1.84741111297626E-13  1.25857720841289E-02
 EXTERNAL_FIELDS_LOAD,        78 : iP,iLd,i0,i1=    8    9    8    9 ; Wght=  0.7000000000  0.3000000000
 cg2d: Sum(rhs),rhsMax =   1.56319401867222E-13  1.29546099223320E-02
 EXTERNAL_FIELDS_LOAD,        79 : iP,iLd,i0,i1=    8    9    8    9 ; Wght=  0.6000000000  0.4000000000
 cg2d: Sum(rhs),rhsMax =   4.29878355134861E-13  1.33290985609867E-02
(PID.TID 0000.0001)      cg2d_init_res =   3.41389576922649E-01
(PID.TID 0000.0001)      cg2d_iters(min,last) =      -1      29
(PID.TID 0000.0001)      cg2d_last_res =   7.32276355232523E-08
(PID.TID 0000.0001) // =======================================================
(PID.TID 0000.0001) // Begin MONITOR dynamic field statistics
(PID.TID 0000.0001) // =======================================================
(PID.TID 0000.0001) %MON time_tsnumber                =                    80
(PID.TID 0000.0001) %MON time_secondsf                =   4.8000000000000E+03
(PID.TID 0000.0001) %MON dynstat_eta_max              =   1.1956024764448E-02
(PID.TID 0000.0001) %MON dynstat_eta_min              =  -5.8810332424025E-03
(PID.TID 0000.0001) %MON dynstat_eta_mean             =  -4.7574025710545E-20
(PID.TID 0000.0001) %MON dynstat_eta_sd               =   7.7069064094447E-04
(PID.TID 0000.0001) %MON dynstat_eta_del2             =   7.5219920851488E-07
(PID.TID 0000.0001) %MON dynstat_uvel_max             =   3.6049484088153E-02
(PID.TID 0000.0001) %MON dynstat_uvel_min             =  -2.1320478562227E-02
(PID.TID 0000.0001) %MON dynstat_uvel_mean            =   4.3812225902855E-05
(PID.TID 0000.0001) %MON dynstat_uvel_sd              =   1.5090290396492E-03
(PID.TID 0000.0001) %MON dynstat_uvel_del2            =   2.4606071042928E-07
(PID.TID 0000.0001) %MON dynstat_vvel_max             =   5.6107845962706E-02
(PID.TID 0000.0001) %MON dynstat_vvel_min             =  -1.3851850539520E-02
(PID.TID 0000.0001) %MON dynstat_vvel_mean            =   2.9871301697799E-05
(PID.TID 0000.0001) %MON dynstat_vvel_sd              =   1.0495271548956E-03
(PID.TID 0000.0001) %MON dynstat_vvel_del2            =   2.1009968068046E-07
(PID.TID 0000.0001) %MON dynstat_wvel_max             =   4.1339807589115E-05
(PID.TID 0000.0001) %MON dynstat_wvel_min             =  -3.4185717046321E-05
(PID.TID 0000.0001) %MON dynstat_wvel_mean            =  -7.4565522189848E-08
(PID.TID 0000.0001) %MON dynstat_wvel_sd              =   4.4605382291598E-07
(PID.TID 0000.0001) %MON dynstat_wvel_del2            =   1.3154879128738E-09
(PID.TID 0000.0001) %MON dynstat_theta_max            =   1.6580002991123E+01
(PID.TID 0000.0001) %MON dynstat_theta_min            =   4.1845856848031E+00
(PID.TID 0000.0001) %MON dynstat_theta_mean           =   8.3857273556600E+00
(PID.TID 0000.0001) %MON dynstat_theta_sd             =   3.8618252618631E+00
(PID.TID 0000.0001) %MON dynstat_theta_del2           =   3.6899636371527E-08
(PID.TID 0000.0001) %MON dynstat_salt_max             =   3.4476100979359E+01
(PID.TID 0000.0001) %MON dynstat_salt_min             =   3.3629991051191E+01
(PID.TID 0000.0001) %MON dynstat_salt_mean            =   3.4127681579049E+01
(PID.TID 0000.0001) %MON dynstat_salt_sd              =   2.8356905579392E-01
(PID.TID 0000.0001) %MON dynstat_salt_del2            =   1.4287112956133E-09
(PID.TID 0000.0001) %MON trAdv_CFL_u_max              =   1.0496379756564E-03
(PID.TID 0000.0001) %MON trAdv_CFL_v_max              =   1.3940480073427E-03
(PID.TID 0000.0001) %MON trAdv_CFL_w_max              =   1.0570043920972E-03
(PID.TID 0000.0001) %MON advcfl_uvel_max              =   1.0860186505105E-03
(PID.TID 0000.0001) %MON advcfl_vvel_max              =   1.4382017548915E-03
(PID.TID 0000.0001) %MON advcfl_wvel_max              =   1.1038181189425E-03
(PID.TID 0000.0001) %MON advcfl_W_hf_max              =   1.1590090248896E-03
(PID.TID 0000.0001) %MON pe_b_mean                    =   4.4488492287669E-09
(PID.TID 0000.0001) %MON ke_max                       =   1.4099452429963E-03
(PID.TID 0000.0001) %MON ke_mean                      =   1.6894464223940E-06
(PID.TID 0000.0001) %MON ke_vol                       =   1.0416098804501E+14
(PID.TID 0000.0001) %MON vort_r_min                   =  -2.7364561876435E-05
(PID.TID 0000.0001) %MON vort_r_max                   =   4.0593464154785E-05
(PID.TID 0000.0001) %MON vort_a_mean                  =   6.9456055905738E-04
(PID.TID 0000.0001) %MON vort_a_sd                    =   7.7976621094138E-07
(PID.TID 0000.0001) %MON vort_p_mean                  =   7.0575608364114E-04
(PID.TID 0000.0001) %MON vort_p_sd                    =   1.5174955715131E-04
(PID.TID 0000.0001) %MON surfExpan_theta_mean         =   9.6109353455105E-13
(PID.TID 0000.0001) %MON surfExpan_salt_mean          =   3.0763011817636E-21
(PID.TID 0000.0001) // =======================================================
(PID.TID 0000.0001) // End MONITOR dynamic field statistics
(PID.TID 0000.0001) // =======================================================
(PID.TID 0000.0001) // =======================================================
(PID.TID 0000.0001) // Begin OBCS MONITOR field statistics
(PID.TID 0000.0001) // =======================================================
(PID.TID 0000.0001) %MON obc_S_vVel_max               =   1.3380850293784E-02
(PID.TID 0000.0001) %MON obc_S_vVel_min               =  -3.7184329868109E-05
(PID.TID 0000.0001) %MON obc_S_vVel_mean              =   1.2118831488428E-19
(PID.TID 0000.0001) %MON obc_S_vVel_sd                =   5.9905497602364E-04
(PID.TID 0000.0001) %MON obc_S_vVel_Int               =   5.7926996532842E-11
(PID.TID 0000.0001) // =======================================================
(PID.TID 0000.0001) // End OBCS MONITOR field statistics
(PID.TID 0000.0001) // =======================================================
 EXTERNAL_FIELDS_LOAD,        80 : iP,iLd,i0,i1=    8    9    8    9 ; Wght=  0.5000000000  0.5000000000
 cg2d: Sum(rhs),rhsMax =   1.31450406115619E-13  1.37091425560184E-02
 EXTERNAL_FIELDS_LOAD,        81 : iP,iLd,i0,i1=    8    9    8    9 ; Wght=  0.4000000000  0.6000000000
 cg2d: Sum(rhs),rhsMax =   1.49213974509621E-13  1.40946302439776E-02
 EXTERNAL_FIELDS_LOAD,        82 : iP,iLd,i0,i1=    8    9    8    9 ; Wght=  0.3000000000  0.7000000000
 cg2d: Sum(rhs),rhsMax =   2.13162820728030E-13  1.44854344341578E-02
 EXTERNAL_FIELDS_LOAD,        83 : iP,iLd,i0,i1=    8    9    8    9 ; Wght=  0.2000000000  0.8000000000
 cg2d: Sum(rhs),rhsMax =   1.74082970261225E-13  1.48814134517540E-02
 EXTERNAL_FIELDS_LOAD,        84 : iP,iLd,i0,i1=    8    9    8    9 ; Wght=  0.1000000000  0.9000000000
 cg2d: Sum(rhs),rhsMax =   9.23705556488130E-14  1.52824124791136E-02
 EXTERNAL_FIELDS_LOAD,        85 : iP,iLd,i0,i1=    8    9    9   10 ; Wght=  1.0000000000  0.0000000000
 EXTERNAL_FIELDS_LOAD, it=        85 : Reading new data, i0,i1=    9   10 (prev=    8    9 )
(PID.TID 0000.0001)  MDS_READ_FIELD: opening global file: ../input/merid_halfgauss2p5hr_240x180.bin
(PID.TID 0000.0001)  MDS_READ_FIELD: opening global file: ../input/merid_halfgauss2p5hr_240x180.bin
 cg2d: Sum(rhs),rhsMax =   2.55795384873636E-13  1.56882651383206E-02
 EXTERNAL_FIELDS_LOAD,        86 : iP,iLd,i0,i1=    9   10    9   10 ; Wght=  0.9000000000  0.1000000000
 cg2d: Sum(rhs),rhsMax =   1.84741111297626E-13  1.60989104366266E-02
 EXTERNAL_FIELDS_LOAD,        87 : iP,iLd,i0,i1=    9   10    9   10 ; Wght=  0.8000000000  0.2000000000
 cg2d: Sum(rhs),rhsMax =   2.34479102800833E-13  1.65142401716113E-02
 EXTERNAL_FIELDS_LOAD,        88 : iP,iLd,i0,i1=    9   10    9   10 ; Wght=  0.7000000000  0.3000000000
 cg2d: Sum(rhs),rhsMax =   4.61852778244065E-13  1.69341347464014E-02
 EXTERNAL_FIELDS_LOAD,        89 : iP,iLd,i0,i1=    9   10    9   10 ; Wght=  0.6000000000  0.4000000000
 cg2d: Sum(rhs),rhsMax =   4.68958205601666E-13  1.73584644826104E-02
 EXTERNAL_FIELDS_LOAD,        90 : iP,iLd,i0,i1=    9   10    9   10 ; Wght=  0.5000000000  0.5000000000
 cg2d: Sum(rhs),rhsMax =   3.55271367880050E-13  1.77870904980115E-02
 EXTERNAL_FIELDS_LOAD,        91 : iP,iLd,i0,i1=    9   10    9   10 ; Wght=  0.4000000000  0.6000000000
 cg2d: Sum(rhs),rhsMax =   6.64357457935694E-13  1.82198659046419E-02
 EXTERNAL_FIELDS_LOAD,        92 : iP,iLd,i0,i1=    9   10    9   10 ; Wght=  0.3000000000  0.7000000000
 cg2d: Sum(rhs),rhsMax =   8.17124146124115E-14  1.86566372774095E-02
 EXTERNAL_FIELDS_LOAD,        93 : iP,iLd,i0,i1=    9   10    9   10 ; Wght=  0.2000000000  0.8000000000
 cg2d: Sum(rhs),rhsMax =   4.61852778244065E-14  1.90972463410016E-02
 EXTERNAL_FIELDS_LOAD,        94 : iP,iLd,i0,i1=    9   10    9   10 ; Wght=  0.1000000000  0.9000000000
 cg2d: Sum(rhs),rhsMax =   4.12114786740858E-13  1.95415318192937E-02
 EXTERNAL_FIELDS_LOAD,        95 : iP,iLd,i0,i1=    9   10   10   11 ; Wght=  1.0000000000  0.0000000000
 EXTERNAL_FIELDS_LOAD, it=        95 : Reading new data, i0,i1=   10   11 (prev=    9   10 )
(PID.TID 0000.0001)  MDS_READ_FIELD: opening global file: ../input/merid_halfgauss2p5hr_240x180.bin
(PID.TID 0000.0001)  MDS_READ_FIELD: opening global file: ../input/merid_halfgauss2p5hr_240x180.bin
 cg2d: Sum(rhs),rhsMax =   4.36983782492462E-13  1.99893313901260E-02
 EXTERNAL_FIELDS_LOAD,        96 : iP,iLd,i0,i1=   10   11   10   11 ; Wght=  0.9000000000  0.1000000000
 cg2d: Sum(rhs),rhsMax =  -1.13686837721616E-13  2.04404587836163E-02
 EXTERNAL_FIELDS_LOAD,        97 : iP,iLd,i0,i1=   10   11   10   11 ; Wght=  0.8000000000  0.2000000000
 cg2d: Sum(rhs),rhsMax =   2.30926389122033E-13  2.08947391777141E-02
 EXTERNAL_FIELDS_LOAD,        98 : iP,iLd,i0,i1=   10   11   10   11 ; Wght=  0.7000000000  0.3000000000
 cg2d: Sum(rhs),rhsMax =   2.66453525910038E-13  2.13520038295770E-02
 EXTERNAL_FIELDS_LOAD,        99 : iP,iLd,i0,i1=   10   11   10   11 ; Wght=  0.6000000000  0.4000000000
 cg2d: Sum(rhs),rhsMax =   3.58824081558851E-13  2.18120920633153E-02
(PID.TID 0000.0001)      cg2d_init_res =   2.85008988088144E-01
(PID.TID 0000.0001)      cg2d_iters(min,last) =      -1      28
(PID.TID 0000.0001)      cg2d_last_res =   9.43125073171678E-08
(PID.TID 0000.0001) // =======================================================
(PID.TID 0000.0001) // Begin MONITOR dynamic field statistics
(PID.TID 0000.0001) // =======================================================
(PID.TID 0000.0001) %MON time_tsnumber                =                   100
(PID.TID 0000.0001) %MON time_secondsf                =   6.0000000000000E+03
(PID.TID 0000.0001) %MON dynstat_eta_max              =   1.9571450209310E-02
(PID.TID 0000.0001) %MON dynstat_eta_min              =  -1.0965692428624E-02
(PID.TID 0000.0001) %MON dynstat_eta_mean             =  -1.8297702196364E-19
(PID.TID 0000.0001) %MON dynstat_eta_sd               =   1.2948007905111E-03
(PID.TID 0000.0001) %MON dynstat_eta_del2             =   1.1511424268913E-06
(PID.TID 0000.0001) %MON dynstat_uvel_max             =   6.6106117007040E-02
(PID.TID 0000.0001) %MON dynstat_uvel_min             =  -3.7558517525461E-02
(PID.TID 0000.0001) %MON dynstat_uvel_mean            =   6.8218366231506E-05
(PID.TID 0000.0001) %MON dynstat_uvel_sd              =   2.4773930176972E-03
(PID.TID 0000.0001) %MON dynstat_uvel_del2            =   4.3690231842961E-07
(PID.TID 0000.0001) %MON dynstat_vvel_max             =   9.8805893765970E-02
(PID.TID 0000.0001) %MON dynstat_vvel_min             =  -2.0734367640874E-02
(PID.TID 0000.0001) %MON dynstat_vvel_mean            =   4.0503177297916E-05
(PID.TID 0000.0001) %MON dynstat_vvel_sd              =   1.2890188763213E-03
(PID.TID 0000.0001) %MON dynstat_vvel_del2            =   3.7937739003912E-07
(PID.TID 0000.0001) %MON dynstat_wvel_max             =   8.7262146029141E-05
(PID.TID 0000.0001) %MON dynstat_wvel_min             =  -6.0995125146163E-05
(PID.TID 0000.0001) %MON dynstat_wvel_mean            =  -9.2502346202856E-08
(PID.TID 0000.0001) %MON dynstat_wvel_sd              =   6.3716849642112E-07
(PID.TID 0000.0001) %MON dynstat_wvel_del2            =   2.0750412356523E-09
(PID.TID 0000.0001) %MON dynstat_theta_max            =   1.6580102275769E+01
(PID.TID 0000.0001) %MON dynstat_theta_min            =   4.1845860421911E+00
(PID.TID 0000.0001) %MON dynstat_theta_mean           =   8.3857290446831E+00
(PID.TID 0000.0001) %MON dynstat_theta_sd             =   3.8618249961683E+00
(PID.TID 0000.0001) %MON dynstat_theta_del2           =   6.2934642882402E-08
(PID.TID 0000.0001) %MON dynstat_salt_max             =   3.4476100942932E+01
(PID.TID 0000.0001) %MON dynstat_salt_min             =   3.3629980756551E+01
(PID.TID 0000.0001) %MON dynstat_salt_mean            =   3.4127681470978E+01
(PID.TID 0000.0001) %MON dynstat_salt_sd              =   2.8356903700512E-01
(PID.TID 0000.0001) %MON dynstat_salt_del2            =   2.3231167268983E-09
(PID.TID 0000.0001) %MON trAdv_CFL_u_max              =   1.9380470661026E-03
(PID.TID 0000.0001) %MON trAdv_CFL_v_max              =   2.4682197312561E-03
(PID.TID 0000.0001) %MON trAdv_CFL_w_max              =   2.0893818212557E-03
(PID.TID 0000.0001) %MON advcfl_uvel_max              =   1.9914980144214E-03
(PID.TID 0000.0001) %MON advcfl_vvel_max              =   2.5326727014667E-03
(PID.TID 0000.0001) %MON advcfl_wvel_max              =   2.2611094961525E-03
(PID.TID 0000.0001) %MON advcfl_W_hf_max              =   2.3741649709601E-03
(PID.TID 0000.0001) %MON pe_b_mean                    =   1.2557217870182E-08
(PID.TID 0000.0001) %MON ke_max                       =   4.3579946989220E-03
(PID.TID 0000.0001) %MON ke_mean                      =   3.9003129320131E-06
(PID.TID 0000.0001) %MON ke_vol                       =   1.0416098804501E+14
(PID.TID 0000.0001) %MON vort_r_min                   =  -4.5741391697186E-05
(PID.TID 0000.0001) %MON vort_r_max                   =   7.2627212412614E-05
(PID.TID 0000.0001) %MON vort_a_mean                  =   6.9456055905738E-04
(PID.TID 0000.0001) %MON vort_a_sd                    =   7.8885086962004E-07
(PID.TID 0000.0001) %MON vort_p_mean                  =   7.0575608364114E-04
(PID.TID 0000.0001) %MON vort_p_sd                    =   1.5174852275045E-04
(PID.TID 0000.0001) %MON surfExpan_theta_mean         =   2.0710822458091E-12
(PID.TID 0000.0001) %MON surfExpan_salt_mean          =   2.9047602236727E-21
(PID.TID 0000.0001) // =======================================================
(PID.TID 0000.0001) // End MONITOR dynamic field statistics
(PID.TID 0000.0001) // =======================================================
(PID.TID 0000.0001) // =======================================================
(PID.TID 0000.0001) // Begin OBCS MONITOR field statistics
(PID.TID 0000.0001) // =======================================================
(PID.TID 0000.0001) %MON obc_S_vVel_max               =   1.6457271667117E-02
(PID.TID 0000.0001) %MON obc_S_vVel_min               =  -4.5104325133388E-05
(PID.TID 0000.0001) %MON obc_S_vVel_mean              =  -4.4699572260906E-20
(PID.TID 0000.0001) %MON obc_S_vVel_sd                =   7.3677791538859E-04
(PID.TID 0000.0001) %MON obc_S_vVel_Int               =  -2.1366020064306E-11
(PID.TID 0000.0001) // =======================================================
(PID.TID 0000.0001) // End OBCS MONITOR field statistics
(PID.TID 0000.0001) // =======================================================
 EXTERNAL_FIELDS_LOAD,       100 : iP,iLd,i0,i1=   10   11   10   11 ; Wght=  0.5000000000  0.5000000000
 cg2d: Sum(rhs),rhsMax =   4.15667500419659E-13  2.22748532053471E-02
 EXTERNAL_FIELDS_LOAD,       101 : iP,iLd,i0,i1=   10   11   10   11 ; Wght=  0.4000000000  0.6000000000
 cg2d: Sum(rhs),rhsMax =   4.79616346638068E-13  2.27401482570912E-02
 EXTERNAL_FIELDS_LOAD,       102 : iP,iLd,i0,i1=   10   11   10   11 ; Wght=  0.3000000000  0.7000000000
 cg2d: Sum(rhs),rhsMax =   1.91846538655227E-13  2.32078512760508E-02
 EXTERNAL_FIELDS_LOAD,       103 : iP,iLd,i0,i1=   10   11   10   11 ; Wght=  0.2000000000  0.8000000000
 cg2d: Sum(rhs),rhsMax =   6.39488462184090E-14  2.36778504430010E-02
 EXTERNAL_FIELDS_LOAD,       104 : iP,iLd,i0,i1=   10   11   10   11 ; Wght=  0.1000000000  0.9000000000
 cg2d: Sum(rhs),rhsMax =   2.16715534406831E-13  2.41500488000783E-02
 EXTERNAL_FIELDS_LOAD,       105 : iP,iLd,i0,i1=   10   11   11   12 ; Wght=  1.0000000000  0.0000000000
 EXTERNAL_FIELDS_LOAD, it=       105 : Reading new data, i0,i1=   11   12 (prev=   10   11 )
(PID.TID 0000.0001)  MDS_READ_FIELD: opening global file: ../input/merid_halfgauss2p5hr_240x180.bin
(PID.TID 0000.0001)  MDS_READ_FIELD: opening global file: ../input/merid_halfgauss2p5hr_240x180.bin
 cg2d: Sum(rhs),rhsMax =   1.35003119794419E-13  2.46243646513661E-02
 EXTERNAL_FIELDS_LOAD,       106 : iP,iLd,i0,i1=   11   12   11   12 ; Wght=  0.9000000000  0.1000000000
 cg2d: Sum(rhs),rhsMax =   4.93827201353270E-13  2.51005439610441E-02
 EXTERNAL_FIELDS_LOAD,       107 : iP,iLd,i0,i1=   11   12   11   12 ; Wght=  0.8000000000  0.2000000000
 cg2d: Sum(rhs),rhsMax =   1.10134124042816E-13  2.55784116794202E-02
 EXTERNAL_FIELDS_LOAD,       108 : iP,iLd,i0,i1=   11   12   11   12 ; Wght=  0.7000000000  0.3000000000
 cg2d: Sum(rhs),rhsMax =   2.55795384873636E-13  2.60578160778498E-02
 EXTERNAL_FIELDS_LOAD,       109 : iP,iLd,i0,i1=   11   12   11   12 ; Wght=  0.6000000000  0.4000000000
 cg2d: Sum(rhs),rhsMax =   3.44613226843649E-13  2.65386289670520E-02
 EXTERNAL_FIELDS_LOAD,       110 : iP,iLd,i0,i1=   11   12   11   12 ; Wght=  0.5000000000  0.5000000000
 cg2d: Sum(rhs),rhsMax =   1.59872115546023E-13  2.70207463352760E-02
 EXTERNAL_FIELDS_LOAD,       111 : iP,iLd,i0,i1=   11   12   11   12 ; Wght=  0.4000000000  0.6000000000
 cg2d: Sum(rhs),rhsMax =   5.18696197104873E-13  2.75040881365669E-02
 EXTERNAL_FIELDS_LOAD,       112 : iP,iLd,i0,i1=   11   12   11   12 ; Wght=  0.3000000000  0.7000000000
 cg2d: Sum(rhs),rhsMax =   4.29878355134861E-13  2.79885972922964E-02
 EXTERNAL_FIELDS_LOAD,       113 : iP,iLd,i0,i1=   11   12   11   12 ; Wght=  0.2000000000  0.8000000000
 cg2d: Sum(rhs),rhsMax =   1.98951966012828E-13  2.84742379853295E-02
 EXTERNAL_FIELDS_LOAD,       114 : iP,iLd,i0,i1=   11   12   11   12 ; Wght=  0.1000000000  0.9000000000
 cg2d: Sum(rhs),rhsMax =   8.88178419700125E-14  2.89609933425820E-02
 EXTERNAL_FIELDS_LOAD,       115 : iP,iLd,i0,i1=   11   12   12   13 ; Wght=  1.0000000000  0.0000000000
 EXTERNAL_FIELDS_LOAD, it=       115 : Reading new data, i0,i1=   12   13 (prev=   11   12 )
(PID.TID 0000.0001)  MDS_READ_FIELD: opening global file: ../input/merid_halfgauss2p5hr_240x180.bin
(PID.TID 0000.0001)  MDS_READ_FIELD: opening global file: ../input/merid_halfgauss2p5hr_240x180.bin
 cg2d: Sum(rhs),rhsMax =   2.73558953267639E-13  2.94488626129451E-02
 EXTERNAL_FIELDS_LOAD,       116 : iP,iLd,i0,i1=   12   13   12   13 ; Wght=  0.9000000000  0.1000000000
 cg2d: Sum(rhs),rhsMax =   1.56319401867222E-13  2.99375009545362E-02
 EXTERNAL_FIELDS_LOAD,       117 : iP,iLd,i0,i1=   12   13   12   13 ; Wght=  0.8000000000  0.2000000000
 cg2d: Sum(rhs),rhsMax =   4.47641923528863E-13  3.04266944447119E-02
 EXTERNAL_FIELDS_LOAD,       118 : iP,iLd,i0,i1=   12   13   12   13 ; Wght=  0.7000000000  0.3000000000
 cg2d: Sum(rhs),rhsMax =   5.89750470680883E-13  3.09162517556911E-02
 EXTERNAL_FIELDS_LOAD,       119 : iP,iLd,i0,i1=   12   13   12   13 ; Wght=  0.6000000000  0.4000000000
 cg2d: Sum(rhs),rhsMax =   2.62900812231237E-13  3.14060025870961E-02
(PID.TID 0000.0001)      cg2d_init_res =   2.37586223208825E-01
(PID.TID 0000.0001)      cg2d_iters(min,last) =      -1      28
(PID.TID 0000.0001)      cg2d_last_res =   8.13280180933365E-08
(PID.TID 0000.0001) // =======================================================
(PID.TID 0000.0001) // Begin MONITOR dynamic field statistics
(PID.TID 0000.0001) // =======================================================
(PID.TID 0000.0001) %MON time_tsnumber                =                   120
(PID.TID 0000.0001) %MON time_secondsf                =   7.2000000000000E+03
(PID.TID 0000.0001) %MON dynstat_eta_max              =   2.8185460734770E-02
(PID.TID 0000.0001) %MON dynstat_eta_min              =  -1.7632575864517E-02
(PID.TID 0000.0001) %MON dynstat_eta_mean             =  -3.2496719100742E-19
(PID.TID 0000.0001) %MON dynstat_eta_sd               =   1.9616278691033E-03
(PID.TID 0000.0001) %MON dynstat_eta_del2             =   1.6016365512245E-06
(PID.TID 0000.0001) %MON dynstat_uvel_max             =   1.0743142119205E-01
(PID.TID 0000.0001) %MON dynstat_uvel_min             =  -5.9028015287777E-02
(PID.TID 0000.0001) %MON dynstat_uvel_mean            =   9.6934022899032E-05
(PID.TID 0000.0001) %MON dynstat_uvel_sd              =   3.5565550981432E-03
(PID.TID 0000.0001) %MON dynstat_uvel_del2            =   6.9147865638281E-07
(PID.TID 0000.0001) %MON dynstat_vvel_max             =   1.5686741662220E-01
(PID.TID 0000.0001) %MON dynstat_vvel_min             =  -2.7632262181380E-02
(PID.TID 0000.0001) %MON dynstat_vvel_mean            =   4.6679260901802E-05
(PID.TID 0000.0001) %MON dynstat_vvel_sd              =   1.3261663328518E-03
(PID.TID 0000.0001) %MON dynstat_vvel_del2            =   6.2247885639136E-07
(PID.TID 0000.0001) %MON dynstat_wvel_max             =   1.6110940113732E-04
(PID.TID 0000.0001) %MON dynstat_wvel_min             =  -9.7291552558601E-05
(PID.TID 0000.0001) %MON dynstat_wvel_mean            =  -1.0066459552785E-07
(PID.TID 0000.0001) %MON dynstat_wvel_sd              =   8.4476504048451E-07
(PID.TID 0000.0001) %MON dynstat_wvel_del2            =   2.9659979388749E-09
(PID.TID 0000.0001) %MON dynstat_theta_max            =   1.6580278379004E+01
(PID.TID 0000.0001) %MON dynstat_theta_min            =   4.1845860576023E+00
(PID.TID 0000.0001) %MON dynstat_theta_mean           =   8.3857310070163E+00
(PID.TID 0000.0001) %MON dynstat_theta_sd             =   3.8618249358076E+00
(PID.TID 0000.0001) %MON dynstat_theta_del2           =   9.6024039412771E-08
(PID.TID 0000.0001) %MON dynstat_salt_max             =   3.4476100941361E+01
(PID.TID 0000.0001) %MON dynstat_salt_min             =   3.3629968086304E+01
(PID.TID 0000.0001) %MON dynstat_salt_mean            =   3.4127681345726E+01
(PID.TID 0000.0001) %MON dynstat_salt_sd              =   2.8356902705349E-01
(PID.TID 0000.0001) %MON dynstat_salt_del2            =   3.3621324239848E-09
(PID.TID 0000.0001) %MON trAdv_CFL_u_max              =   3.1669287612270E-03
(PID.TID 0000.0001) %MON trAdv_CFL_v_max              =   3.9381492780922E-03
(PID.TID 0000.0001) %MON trAdv_CFL_w_max              =   3.7745669718969E-03
(PID.TID 0000.0001) %MON advcfl_uvel_max              =   3.2364548346965E-03
(PID.TID 0000.0001) %MON advcfl_vvel_max              =   4.0209526849652E-03
(PID.TID 0000.0001) %MON advcfl_wvel_max              =   4.0608486860820E-03
(PID.TID 0000.0001) %MON advcfl_W_hf_max              =   4.2638911203861E-03
(PID.TID 0000.0001) %MON pe_b_mean                    =   2.8821777660005E-08
(PID.TID 0000.0001) %MON ke_max                       =   1.1013595566457E-02
(PID.TID 0000.0001) %MON ke_mean                      =   7.2060077824091E-06
(PID.TID 0000.0001) %MON ke_vol                       =   1.0416098804501E+14
(PID.TID 0000.0001) %MON vort_r_min                   =  -6.8749294867798E-05
(PID.TID 0000.0001) %MON vort_r_max                   =   1.1636942565707E-04
(PID.TID 0000.0001) %MON vort_a_mean                  =   6.9456055905738E-04
(PID.TID 0000.0001) %MON vort_a_sd                    =   8.0667824928241E-07
(PID.TID 0000.0001) %MON vort_p_mean                  =   7.0575608364114E-04
(PID.TID 0000.0001) %MON vort_p_sd                    =   1.5174761070104E-04
(PID.TID 0000.0001) %MON surfExpan_theta_mean         =   3.5592735408998E-12
(PID.TID 0000.0001) %MON surfExpan_salt_mean          =  -2.8132717126909E-21
(PID.TID 0000.0001) // =======================================================
(PID.TID 0000.0001) // End MONITOR dynamic field statistics
(PID.TID 0000.0001) // =======================================================
(PID.TID 0000.0001) // =======================================================
(PID.TID 0000.0001) // Begin OBCS MONITOR field statistics
(PID.TID 0000.0001) // =======================================================
(PID.TID 0000.0001) %MON obc_S_vVel_max               =   1.8424937736858E-02
(PID.TID 0000.0001) %MON obc_S_vVel_min               =  -4.7562251200694E-05
(PID.TID 0000.0001) %MON obc_S_vVel_mean              =  -1.5581673310237E-19
(PID.TID 0000.0001) %MON obc_S_vVel_sd                =   8.2482163298858E-04
(PID.TID 0000.0001) %MON obc_S_vVel_Int               =  -7.4479089562374E-11
(PID.TID 0000.0001) // =======================================================
(PID.TID 0000.0001) // End OBCS MONITOR field statistics
(PID.TID 0000.0001) // =======================================================
 EXTERNAL_FIELDS_LOAD,       120 : iP,iLd,i0,i1=   12   13   12   13 ; Wght=  0.5000000000  0.5000000000
 cg2d: Sum(rhs),rhsMax =   5.93303184359684E-13  3.18957975065942E-02
 EXTERNAL_FIELDS_LOAD,       121 : iP,iLd,i0,i1=   12   13   12   13 ; Wght=  0.4000000000  0.6000000000
 cg2d: Sum(rhs),rhsMax =   3.90798504668055E-14  3.23855068181437E-02
 EXTERNAL_FIELDS_LOAD,       122 : iP,iLd,i0,i1=   12   13   12   13 ; Wght=  0.3000000000  0.7000000000
 cg2d: Sum(rhs),rhsMax =   4.33431068813661E-13  3.28750186031647E-02
 EXTERNAL_FIELDS_LOAD,       123 : iP,iLd,i0,i1=   12   13   12   13 ; Wght=  0.2000000000  0.8000000000
 cg2d: Sum(rhs),rhsMax =   2.23820961764432E-13  3.33642360931758E-02
 EXTERNAL_FIELDS_LOAD,       124 : iP,iLd,i0,i1=   12   13   12   13 ; Wght=  0.1000000000  0.9000000000
 cg2d: Sum(rhs),rhsMax =   2.66453525910038E-13  3.38530745457499E-02
 EXTERNAL_FIELDS_LOAD,       125 : iP,iLd,i0,i1=   12   13   13   14 ; Wght=  1.0000000000  0.0000000000
 EXTERNAL_FIELDS_LOAD, it=       125 : Reading new data, i0,i1=   13   14 (prev=   12   13 )
(PID.TID 0000.0001)  MDS_READ_FIELD: opening global file: ../input/merid_halfgauss2p5hr_240x180.bin
(PID.TID 0000.0001)  MDS_READ_FIELD: opening global file: ../input/merid_halfgauss2p5hr_240x180.bin
 cg2d: Sum(rhs),rhsMax =  -1.20792265079217E-13  3.43414577998973E-02
 EXTERNAL_FIELDS_LOAD,       126 : iP,iLd,i0,i1=   13   14   13   14 ; Wght=  0.9000000000  0.1000000000
 cg2d: Sum(rhs),rhsMax =   2.84217094304040E-13  3.48288011670779E-02
 EXTERNAL_FIELDS_LOAD,       127 : iP,iLd,i0,i1=   13   14   13   14 ; Wght=  0.8000000000  0.2000000000
 cg2d: Sum(rhs),rhsMax =  -1.03028696685215E-13  3.53146959360890E-02
 EXTERNAL_FIELDS_LOAD,       128 : iP,iLd,i0,i1=   13   14   13   14 ; Wght=  0.7000000000  0.3000000000
 cg2d: Sum(rhs),rhsMax =   1.13686837721616E-13  3.57987555203825E-02
 EXTERNAL_FIELDS_LOAD,       129 : iP,iLd,i0,i1=   13   14   13   14 ; Wght=  0.6000000000  0.4000000000
 cg2d: Sum(rhs),rhsMax =   1.77635683940025E-13  3.62806153921570E-02
 EXTERNAL_FIELDS_LOAD,       130 : iP,iLd,i0,i1=   13   14   13   14 ; Wght=  0.5000000000  0.5000000000
 cg2d: Sum(rhs),rhsMax =   1.91846538655227E-13  3.67599353812069E-02
 EXTERNAL_FIELDS_LOAD,       131 : iP,iLd,i0,i1=   13   14   13   14 ; Wght=  0.4000000000  0.6000000000
 cg2d: Sum(rhs),rhsMax =  -1.35003119794419E-13  3.72364008463045E-02
 EXTERNAL_FIELDS_LOAD,       132 : iP,iLd,i0,i1=   13   14   13   14 ; Wght=  0.3000000000  0.7000000000
 cg2d: Sum(rhs),rhsMax =  -1.06581410364015E-13  3.77097228650018E-02
 EXTERNAL_FIELDS_LOAD,       133 : iP,iLd,i0,i1=   13   14   13   14 ; Wght=  0.2000000000  0.8000000000
 cg2d: Sum(rhs),rhsMax =   3.09086090055644E-13  3.81796376009733E-02
 EXTERNAL_FIELDS_LOAD,       134 : iP,iLd,i0,i1=   13   14   13   14 ; Wght=  0.1000000000  0.9000000000
 cg2d: Sum(rhs),rhsMax =   2.62900812231237E-13  3.86459050223699E-02
 EXTERNAL_FIELDS_LOAD,       135 : iP,iLd,i0,i1=   13   14   14   15 ; Wght=  1.0000000000  0.0000000000
 EXTERNAL_FIELDS_LOAD, it=       135 : Reading new data, i0,i1=   14   15 (prev=   13   14 )
(PID.TID 0000.0001)  MDS_READ_FIELD: opening global file: ../input/merid_halfgauss2p5hr_240x180.bin
(PID.TID 0000.0001)  MDS_READ_FIELD: opening global file: ../input/merid_halfgauss2p5hr_240x180.bin
 cg2d: Sum(rhs),rhsMax =   1.03028696685215E-13  3.91083071480778E-02
 EXTERNAL_FIELDS_LOAD,       136 : iP,iLd,i0,i1=   14   15   14   15 ; Wght=  0.9000000000  0.1000000000
 cg2d: Sum(rhs),rhsMax =  -3.90798504668055E-14  3.95660084651853E-02
 EXTERNAL_FIELDS_LOAD,       137 : iP,iLd,i0,i1=   14   15   14   15 ; Wght=  0.8000000000  0.2000000000
 cg2d: Sum(rhs),rhsMax =  -1.20792265079217E-13  4.00184077277909E-02
 EXTERNAL_FIELDS_LOAD,       138 : iP,iLd,i0,i1=   14   15   14   15 ; Wght=  0.7000000000  0.3000000000
 cg2d: Sum(rhs),rhsMax =   2.02504679691629E-13  4.04649491650902E-02
 EXTERNAL_FIELDS_LOAD,       139 : iP,iLd,i0,i1=   14   15   14   15 ; Wght=  0.6000000000  0.4000000000
 cg2d: Sum(rhs),rhsMax =   1.45661260830821E-13  4.09051241911473E-02
(PID.TID 0000.0001)      cg2d_init_res =   1.91336730036302E-01
(PID.TID 0000.0001)      cg2d_iters(min,last) =      -1      28
(PID.TID 0000.0001)      cg2d_last_res =   8.45113747265589E-08
(PID.TID 0000.0001) // =======================================================
(PID.TID 0000.0001) // Begin MONITOR dynamic field statistics
(PID.TID 0000.0001) // =======================================================
(PID.TID 0000.0001) %MON time_tsnumber                =                   140
(PID.TID 0000.0001) %MON time_secondsf                =   8.4000000000000E+03
(PID.TID 0000.0001) %MON dynstat_eta_max              =   3.6715226245045E-02
(PID.TID 0000.0001) %MON dynstat_eta_min              =  -2.5744011900040E-02
(PID.TID 0000.0001) %MON dynstat_eta_mean             =  -2.2542769105920E-19
(PID.TID 0000.0001) %MON dynstat_eta_sd               =   2.6942559257619E-03
(PID.TID 0000.0001) %MON dynstat_eta_del2             =   2.0417082850683E-06
(PID.TID 0000.0001) %MON dynstat_uvel_max             =   1.5756185525729E-01
(PID.TID 0000.0001) %MON dynstat_uvel_min             =  -8.3625677188870E-02
(PID.TID 0000.0001) %MON dynstat_uvel_mean            =   1.2343349728430E-04
(PID.TID 0000.0001) %MON dynstat_uvel_sd              =   4.5094888461634E-03
(PID.TID 0000.0001) %MON dynstat_uvel_del2            =   9.9166376571518E-07
(PID.TID 0000.0001) %MON dynstat_vvel_max             =   2.2679576333864E-01
(PID.TID 0000.0001) %MON dynstat_vvel_min             =  -3.2442594380096E-02
(PID.TID 0000.0001) %MON dynstat_vvel_mean            =   4.3435702806763E-05
(PID.TID 0000.0001) %MON dynstat_vvel_sd              =   1.0443893623265E-03
(PID.TID 0000.0001) %MON dynstat_vvel_del2            =   9.4355752690588E-07
(PID.TID 0000.0001) %MON dynstat_wvel_max             =   2.6672151851557E-04
(PID.TID 0000.0001) %MON dynstat_wvel_min             =  -1.3985645621443E-04
(PID.TID 0000.0001) %MON dynstat_wvel_mean            =  -9.7223548380502E-08
(PID.TID 0000.0001) %MON dynstat_wvel_sd              =   1.1040867702214E-06
(PID.TID 0000.0001) %MON dynstat_wvel_del2            =   3.9825828576896E-09
(PID.TID 0000.0001) %MON dynstat_theta_max            =   1.6580535776241E+01
(PID.TID 0000.0001) %MON dynstat_theta_min            =   4.1845855461098E+00
(PID.TID 0000.0001) %MON dynstat_theta_mean           =   8.3857330625189E+00
(PID.TID 0000.0001) %MON dynstat_theta_sd             =   3.8618249943846E+00
(PID.TID 0000.0001) %MON dynstat_theta_del2           =   1.3176250018409E-07
(PID.TID 0000.0001) %MON dynstat_salt_max             =   3.4476100993495E+01
(PID.TID 0000.0001) %MON dynstat_salt_min             =   3.3629955870670E+01
(PID.TID 0000.0001) %MON dynstat_salt_mean            =   3.4127681216229E+01
(PID.TID 0000.0001) %MON dynstat_salt_sd              =   2.8356902201792E-01
(PID.TID 0000.0001) %MON dynstat_salt_del2            =   4.3278570307875E-09
(PID.TID 0000.0001) %MON trAdv_CFL_u_max              =   4.6673485522888E-03
(PID.TID 0000.0001) %MON trAdv_CFL_v_max              =   5.9108725635090E-03
(PID.TID 0000.0001) %MON trAdv_CFL_w_max              =   6.1235288828909E-03
(PID.TID 0000.0001) %MON advcfl_uvel_max              =   4.7466730175671E-03
(PID.TID 0000.0001) %MON advcfl_vvel_max              =   5.8134127097377E-03
(PID.TID 0000.0001) %MON advcfl_wvel_max              =   6.5558435252755E-03
(PID.TID 0000.0001) %MON advcfl_W_hf_max              =   6.8836357015393E-03
(PID.TID 0000.0001) %MON pe_b_mean                    =   5.4370735892387E-08
(PID.TID 0000.0001) %MON ke_max                       =   2.3233841188207E-02
(PID.TID 0000.0001) %MON ke_mean                      =   1.0716544079469E-05
(PID.TID 0000.0001) %MON ke_vol                       =   1.0416098804501E+14
(PID.TID 0000.0001) %MON vort_r_min                   =  -9.3989390282097E-05
(PID.TID 0000.0001) %MON vort_r_max                   =   1.6890770777413E-04
(PID.TID 0000.0001) %MON vort_a_mean                  =   6.9456055905738E-04
(PID.TID 0000.0001) %MON vort_a_sd                    =   8.3467377710606E-07
(PID.TID 0000.0001) %MON vort_p_mean                  =   7.0575608364114E-04
(PID.TID 0000.0001) %MON vort_p_sd                    =   1.5174719788961E-04
(PID.TID 0000.0001) %MON surfExpan_theta_mean         =   4.5913521657392E-12
(PID.TID 0000.0001) %MON surfExpan_salt_mean          =   2.9962487346545E-21
(PID.TID 0000.0001) // =======================================================
(PID.TID 0000.0001) // End MONITOR dynamic field statistics
(PID.TID 0000.0001) // =======================================================
(PID.TID 0000.0001) // =======================================================
(PID.TID 0000.0001) // Begin OBCS MONITOR field statistics
(PID.TID 0000.0001) // =======================================================
(PID.TID 0000.0001) %MON obc_S_vVel_max               =   2.0020770261539E-02
(PID.TID 0000.0001) %MON obc_S_vVel_min               =  -5.4467674986634E-05
(PID.TID 0000.0001) %MON obc_S_vVel_mean              =  -1.2672559146133E-20
(PID.TID 0000.0001) %MON obc_S_vVel_sd                =   8.9618396207859E-04
(PID.TID 0000.0001) %MON obc_S_vVel_Int               =  -6.0573768223549E-12
(PID.TID 0000.0001) // =======================================================
(PID.TID 0000.0001) // End OBCS MONITOR field statistics
(PID.TID 0000.0001) // =======================================================
 EXTERNAL_FIELDS_LOAD,       140 : iP,iLd,i0,i1=   14   15   14   15 ; Wght=  0.5000000000  0.5000000000
 cg2d: Sum(rhs),rhsMax =   2.84217094304040E-14  4.13384757930765E-02
 EXTERNAL_FIELDS_LOAD,       141 : iP,iLd,i0,i1=   14   15   14   15 ; Wght=  0.4000000000  0.6000000000
 cg2d: Sum(rhs),rhsMax =   1.06581410364015E-14  4.17646012076740E-02
 EXTERNAL_FIELDS_LOAD,       142 : iP,iLd,i0,i1=   14   15   14   15 ; Wght=  0.3000000000  0.7000000000
 cg2d: Sum(rhs),rhsMax =   4.83169060316868E-13  4.21831530374086E-02
 EXTERNAL_FIELDS_LOAD,       143 : iP,iLd,i0,i1=   14   15   14   15 ; Wght=  0.2000000000  0.8000000000
 cg2d: Sum(rhs),rhsMax =   4.26325641456060E-14  4.25938389813254E-02
 EXTERNAL_FIELDS_LOAD,       144 : iP,iLd,i0,i1=   14   15   14   15 ; Wght=  0.1000000000  0.9000000000
 cg2d: Sum(rhs),rhsMax =   5.15143483426073E-13  4.29964203821038E-02
 EXTERNAL_FIELDS_LOAD,       145 : iP,iLd,i0,i1=   14   15   15   16 ; Wght=  1.0000000000  0.0000000000
 EXTERNAL_FIELDS_LOAD, it=       145 : Reading new data, i0,i1=   15   16 (prev=   14   15 )
(PID.TID 0000.0001)  MDS_READ_FIELD: opening global file: ../input/merid_halfgauss2p5hr_240x180.bin
(PID.TID 0000.0001)  MDS_READ_FIELD: opening global file: ../input/merid_halfgauss2p5hr_240x180.bin
 cg2d: Sum(rhs),rhsMax =   2.38031816479634E-13  4.33907098032598E-02
 EXTERNAL_FIELDS_LOAD,       146 : iP,iLd,i0,i1=   15   16   15   16 ; Wght=  0.9000000000  0.1000000000
 cg2d: Sum(rhs),rhsMax =   5.82645043323282E-13  4.37502850803779E-02
 EXTERNAL_FIELDS_LOAD,       147 : iP,iLd,i0,i1=   15   16   15   16 ; Wght=  0.8000000000  0.2000000000
 cg2d: Sum(rhs),rhsMax =   4.26325641456060E-14  4.40576823177653E-02
 EXTERNAL_FIELDS_LOAD,       148 : iP,iLd,i0,i1=   15   16   15   16 ; Wght=  0.7000000000  0.3000000000
 cg2d: Sum(rhs),rhsMax =   4.26325641456060E-14  4.42967072712625E-02
 EXTERNAL_FIELDS_LOAD,       149 : iP,iLd,i0,i1=   15   16   15   16 ; Wght=  0.6000000000  0.4000000000
 cg2d: Sum(rhs),rhsMax =  -2.48689957516035E-14  4.45297295309255E-02
 EXTERNAL_FIELDS_LOAD,       150 : iP,iLd,i0,i1=   15   16   15   16 ; Wght=  0.5000000000  0.5000000000
 cg2d: Sum(rhs),rhsMax =   5.00932628710871E-13  4.46712914203821E-02
 EXTERNAL_FIELDS_LOAD,       151 : iP,iLd,i0,i1=   15   16   15   16 ; Wght=  0.4000000000  0.6000000000
 cg2d: Sum(rhs),rhsMax =   4.26325641456060E-14  4.47094065775880E-02
 EXTERNAL_FIELDS_LOAD,       152 : iP,iLd,i0,i1=   15   16   15   16 ; Wght=  0.3000000000  0.7000000000
 cg2d: Sum(rhs),rhsMax =   1.77635683940025E-13  4.46344412519617E-02
 EXTERNAL_FIELDS_LOAD,       153 : iP,iLd,i0,i1=   15   16   15   16 ; Wght=  0.2000000000  0.8000000000
 cg2d: Sum(rhs),rhsMax =  -2.48689957516035E-14  4.44384718832589E-02
 EXTERNAL_FIELDS_LOAD,       154 : iP,iLd,i0,i1=   15   16   15   16 ; Wght=  0.1000000000  0.9000000000
 cg2d: Sum(rhs),rhsMax =   1.95399252334028E-13  4.41151991630178E-02
 EXTERNAL_FIELDS_LOAD,       155 : iP,iLd,i0,i1=   15   16   16   17 ; Wght=  1.0000000000  0.0000000000
 EXTERNAL_FIELDS_LOAD, it=       155 : Reading new data, i0,i1=   16   17 (prev=   15   16 )
(PID.TID 0000.0001)  MDS_READ_FIELD: opening global file: ../input/merid_halfgauss2p5hr_240x180.bin
(PID.TID 0000.0001)  MDS_READ_FIELD: opening global file: ../input/merid_halfgauss2p5hr_240x180.bin
 cg2d: Sum(rhs),rhsMax =   1.56319401867222E-13  4.36598235186408E-02
 EXTERNAL_FIELDS_LOAD,       156 : iP,iLd,i0,i1=   16   17   16   17 ; Wght=  0.9000000000  0.1000000000
 cg2d: Sum(rhs),rhsMax =   7.10542735760100E-13  4.30942847550418E-02
 EXTERNAL_FIELDS_LOAD,       157 : iP,iLd,i0,i1=   16   17   16   17 ; Wght=  0.8000000000  0.2000000000
 cg2d: Sum(rhs),rhsMax =   6.85673740008497E-13  4.24331206422165E-02
 EXTERNAL_FIELDS_LOAD,       158 : iP,iLd,i0,i1=   16   17   16   17 ; Wght=  0.7000000000  0.3000000000
 cg2d: Sum(rhs),rhsMax =   9.37916411203332E-13  4.16907192754570E-02
 EXTERNAL_FIELDS_LOAD,       159 : iP,iLd,i0,i1=   16   17   16   17 ; Wght=  0.6000000000  0.4000000000
 cg2d: Sum(rhs),rhsMax =  -5.68434188608080E-14  4.08810581543709E-02
(PID.TID 0000.0001)      cg2d_init_res =   3.20663957128562E-01
(PID.TID 0000.0001)      cg2d_iters(min,last) =      -1      30
(PID.TID 0000.0001)      cg2d_last_res =   6.25231517361031E-08
(PID.TID 0000.0001) // =======================================================
(PID.TID 0000.0001) // Begin MONITOR dynamic field statistics
(PID.TID 0000.0001) // =======================================================
(PID.TID 0000.0001) %MON time_tsnumber                =                   160
(PID.TID 0000.0001) %MON time_secondsf                =   9.6000000000000E+03
(PID.TID 0000.0001) %MON dynstat_eta_max              =   3.6881489317381E-02
(PID.TID 0000.0001) %MON dynstat_eta_min              =  -3.6499060066173E-02
(PID.TID 0000.0001) %MON dynstat_eta_mean             =  -6.1480279379782E-20
(PID.TID 0000.0001) %MON dynstat_eta_sd               =   3.2113651458164E-03
(PID.TID 0000.0001) %MON dynstat_eta_del2             =   2.0626351177006E-06
(PID.TID 0000.0001) %MON dynstat_uvel_max             =   2.0405290879262E-01
(PID.TID 0000.0001) %MON dynstat_uvel_min             =  -1.0518124620598E-01
(PID.TID 0000.0001) %MON dynstat_uvel_mean            =   1.2193393078875E-04
(PID.TID 0000.0001) %MON dynstat_uvel_sd              =   4.6559470576290E-03
(PID.TID 0000.0001) %MON dynstat_uvel_del2            =   1.2616688739223E-06
(PID.TID 0000.0001) %MON dynstat_vvel_max             =   2.7176303204612E-01
(PID.TID 0000.0001) %MON dynstat_vvel_min             =  -7.5847407932523E-02
(PID.TID 0000.0001) %MON dynstat_vvel_mean            =  -4.5033727932681E-05
(PID.TID 0000.0001) %MON dynstat_vvel_sd              =   1.4303857442007E-03
(PID.TID 0000.0001) %MON dynstat_vvel_del2            =   1.3565140113165E-06
(PID.TID 0000.0001) %MON dynstat_wvel_max             =   3.9862509294442E-04
(PID.TID 0000.0001) %MON dynstat_wvel_min             =  -1.7752610508926E-04
(PID.TID 0000.0001) %MON dynstat_wvel_mean            =   1.9473504699138E-08
(PID.TID 0000.0001) %MON dynstat_wvel_sd              =   1.7056864143256E-06
(PID.TID 0000.0001) %MON dynstat_wvel_del2            =   5.4677992854104E-09
(PID.TID 0000.0001) %MON dynstat_theta_max            =   1.6580853677468E+01
(PID.TID 0000.0001) %MON dynstat_theta_min            =   4.1845846704656E+00
(PID.TID 0000.0001) %MON dynstat_theta_mean           =   8.3857346038133E+00
(PID.TID 0000.0001) %MON dynstat_theta_sd             =   3.8618247725724E+00
(PID.TID 0000.0001) %MON dynstat_theta_del2           =   1.6741791090445E-07
(PID.TID 0000.0001) %MON dynstat_salt_max             =   3.4476101082744E+01
(PID.TID 0000.0001) %MON dynstat_salt_min             =   3.3629951833677E+01
(PID.TID 0000.0001) %MON dynstat_salt_mean            =   3.4127681122440E+01
(PID.TID 0000.0001) %MON dynstat_salt_sd              =   2.8356900424457E-01
(PID.TID 0000.0001) %MON dynstat_salt_del2            =   5.3281817144477E-09
(PID.TID 0000.0001) %MON trAdv_CFL_u_max              =   6.1033344990747E-03
(PID.TID 0000.0001) %MON trAdv_CFL_v_max              =   8.7658318403955E-03
(PID.TID 0000.0001) %MON trAdv_CFL_w_max              =   8.9932493193587E-03
(PID.TID 0000.0001) %MON advcfl_uvel_max              =   6.1472520410500E-03
(PID.TID 0000.0001) %MON advcfl_vvel_max              =   6.9660501645912E-03
(PID.TID 0000.0001) %MON advcfl_wvel_max              =   9.5734041611105E-03
(PID.TID 0000.0001) %MON advcfl_W_hf_max              =   1.0052074369166E-02
(PID.TID 0000.0001) %MON pe_b_mean                    =   7.7244380884415E-08
(PID.TID 0000.0001) %MON ke_max                       =   3.7101233582402E-02
(PID.TID 0000.0001) %MON ke_mean                      =   1.1867167406289E-05
(PID.TID 0000.0001) %MON ke_vol                       =   1.0416098804501E+14
(PID.TID 0000.0001) %MON vort_r_min                   =  -1.0081053315497E-04
(PID.TID 0000.0001) %MON vort_r_max                   =   2.0686052764682E-04
(PID.TID 0000.0001) %MON vort_a_mean                  =   6.9456055905738E-04
(PID.TID 0000.0001) %MON vort_a_sd                    =   8.5753896347668E-07
(PID.TID 0000.0001) %MON vort_p_mean                  =   7.0575608364114E-04
(PID.TID 0000.0001) %MON vort_p_sd                    =   1.5174736196508E-04
(PID.TID 0000.0001) %MON surfExpan_theta_mean         =  -1.4187250279667E-11
(PID.TID 0000.0001) %MON surfExpan_salt_mean          =   2.5159340520000E-22
(PID.TID 0000.0001) // =======================================================
(PID.TID 0000.0001) // End MONITOR dynamic field statistics
(PID.TID 0000.0001) // =======================================================
(PID.TID 0000.0001) // =======================================================
(PID.TID 0000.0001) // Begin OBCS MONITOR field statistics
(PID.TID 0000.0001) // =======================================================
(PID.TID 0000.0001) %MON obc_S_vVel_max               =   2.1528100983228E-03
(PID.TID 0000.0001) %MON obc_S_vVel_min               =  -8.6686046513749E-05
(PID.TID 0000.0001) %MON obc_S_vVel_mean              =  -8.3393615026167E-21
(PID.TID 0000.0001) %MON obc_S_vVel_sd                =   1.0121318338300E-04
(PID.TID 0000.0001) %MON obc_S_vVel_Int               =  -3.9861447476142E-12
(PID.TID 0000.0001) // =======================================================
(PID.TID 0000.0001) // End OBCS MONITOR field statistics
(PID.TID 0000.0001) // =======================================================
 EXTERNAL_FIELDS_LOAD,       160 : iP,iLd,i0,i1=   16   17   16   17 ; Wght=  0.5000000000  0.5000000000
 cg2d: Sum(rhs),rhsMax =   1.49213974509621E-13  4.14139793540938E-02
 EXTERNAL_FIELDS_LOAD,       161 : iP,iLd,i0,i1=   16   17   16   17 ; Wght=  0.4000000000  0.6000000000
 cg2d: Sum(rhs),rhsMax =   1.66977542903624E-13  4.22677464875769E-02
 EXTERNAL_FIELDS_LOAD,       162 : iP,iLd,i0,i1=   16   17   16   17 ; Wght=  0.3000000000  0.7000000000
 cg2d: Sum(rhs),rhsMax =   2.16715534406831E-13  4.30143248271925E-02
 EXTERNAL_FIELDS_LOAD,       163 : iP,iLd,i0,i1=   16   17   16   17 ; Wght=  0.2000000000  0.8000000000
 cg2d: Sum(rhs),rhsMax =   1.74082970261225E-13  4.36400111840455E-02
 EXTERNAL_FIELDS_LOAD,       164 : iP,iLd,i0,i1=   16   17   16   17 ; Wght=  0.1000000000  0.9000000000
 cg2d: Sum(rhs),rhsMax =   2.13162820728030E-14  4.41342718756777E-02
 EXTERNAL_FIELDS_LOAD,       165 : iP,iLd,i0,i1=   16   17   17   18 ; Wght=  1.0000000000  0.0000000000
 EXTERNAL_FIELDS_LOAD, it=       165 : Reading new data, i0,i1=   17   18 (prev=   16   17 )
(PID.TID 0000.0001)  MDS_READ_FIELD: opening global file: ../input/merid_halfgauss2p5hr_240x180.bin
(PID.TID 0000.0001)  MDS_READ_FIELD: opening global file: ../input/merid_halfgauss2p5hr_240x180.bin
 cg2d: Sum(rhs),rhsMax =  -7.10542735760100E-15  4.44898212146845E-02
 EXTERNAL_FIELDS_LOAD,       166 : iP,iLd,i0,i1=   17   18   17   18 ; Wght=  0.9000000000  0.1000000000
 cg2d: Sum(rhs),rhsMax =   1.42108547152020E-14  4.47026038476016E-02
 EXTERNAL_FIELDS_LOAD,       167 : iP,iLd,i0,i1=   17   18   17   18 ; Wght=  0.8000000000  0.2000000000
 cg2d: Sum(rhs),rhsMax =   1.77635683940025E-14  4.47716883341280E-02
 EXTERNAL_FIELDS_LOAD,       168 : iP,iLd,i0,i1=   17   18   17   18 ; Wght=  0.7000000000  0.3000000000
 cg2d: Sum(rhs),rhsMax =   1.91846538655227E-13  4.46990817703125E-02
 EXTERNAL_FIELDS_LOAD,       169 : iP,iLd,i0,i1=   17   18   17   18 ; Wght=  0.6000000000  0.4000000000
 cg2d: Sum(rhs),rhsMax =   7.10542735760100E-15  4.44894772489731E-02
 EXTERNAL_FIELDS_LOAD,       170 : iP,iLd,i0,i1=   17   18   17   18 ; Wght=  0.5000000000  0.5000000000
 cg2d: Sum(rhs),rhsMax =   1.45661260830821E-13  4.41499474718990E-02
 EXTERNAL_FIELDS_LOAD,       171 : iP,iLd,i0,i1=   17   18   17   18 ; Wght=  0.4000000000  0.6000000000
 cg2d: Sum(rhs),rhsMax =  -2.13162820728030E-14  4.36895987418413E-02
 EXTERNAL_FIELDS_LOAD,       172 : iP,iLd,i0,i1=   17   18   17   18 ; Wght=  0.3000000000  0.7000000000
 cg2d: Sum(rhs),rhsMax =   1.49213974509621E-13  4.31191998374598E-02
 EXTERNAL_FIELDS_LOAD,       173 : iP,iLd,i0,i1=   17   18   17   18 ; Wght=  0.2000000000  0.8000000000
 cg2d: Sum(rhs),rhsMax =   2.84217094304040E-14  4.24507999087235E-02
 EXTERNAL_FIELDS_LOAD,       174 : iP,iLd,i0,i1=   17   18   17   18 ; Wght=  0.1000000000  0.9000000000
 cg2d: Sum(rhs),rhsMax =   5.32907051820075E-14  4.16973485912278E-02
 EXTERNAL_FIELDS_LOAD,       175 : iP,iLd,i0,i1=   17   18   18   19 ; Wght=  1.0000000000  0.0000000000
 EXTERNAL_FIELDS_LOAD, it=       175 : Reading new data, i0,i1=   18   19 (prev=   17   18 )
(PID.TID 0000.0001)  MDS_READ_FIELD: opening global file: ../input/merid_halfgauss2p5hr_240x180.bin
(PID.TID 0000.0001)  MDS_READ_FIELD: opening global file: ../input/merid_halfgauss2p5hr_240x180.bin
 cg2d: Sum(rhs),rhsMax =   7.10542735760100E-14  4.08723300416776E-02
 EXTERNAL_FIELDS_LOAD,       176 : iP,iLd,i0,i1=   18   19   18   19 ; Wght=  0.9000000000  0.1000000000
 cg2d: Sum(rhs),rhsMax =  -9.59232693276135E-14  4.00513113570462E-02
 EXTERNAL_FIELDS_LOAD,       177 : iP,iLd,i0,i1=   18   19   18   19 ; Wght=  0.8000000000  0.2000000000
 cg2d: Sum(rhs),rhsMax =   1.10134124042816E-13  3.95988619663931E-02
 EXTERNAL_FIELDS_LOAD,       178 : iP,iLd,i0,i1=   18   19   18   19 ; Wght=  0.7000000000  0.3000000000
 cg2d: Sum(rhs),rhsMax =   8.88178419700125E-14  3.90730484449970E-02
 EXTERNAL_FIELDS_LOAD,       179 : iP,iLd,i0,i1=   18   19   18   19 ; Wght=  0.6000000000  0.4000000000
 cg2d: Sum(rhs),rhsMax =   6.00408611717285E-13  3.84792455885208E-02
(PID.TID 0000.0001)      cg2d_init_res =   4.04981034612088E-01
(PID.TID 0000.0001)      cg2d_iters(min,last) =      -1      30
(PID.TID 0000.0001)      cg2d_last_res =   9.88226326282350E-08
(PID.TID 0000.0001) // =======================================================
(PID.TID 0000.0001) // Begin MONITOR dynamic field statistics
(PID.TID 0000.0001) // =======================================================
(PID.TID 0000.0001) %MON time_tsnumber                =                   180
(PID.TID 0000.0001) %MON time_secondsf                =   1.0800000000000E+04
(PID.TID 0000.0001) %MON dynstat_eta_max              =   2.2814726944229E-02
(PID.TID 0000.0001) %MON dynstat_eta_min              =  -3.4696318056840E-02
(PID.TID 0000.0001) %MON dynstat_eta_mean             =  -2.1371716165353E-19
(PID.TID 0000.0001) %MON dynstat_eta_sd               =   2.8771346153289E-03
(PID.TID 0000.0001) %MON dynstat_eta_del2             =   1.8817905786070E-06
(PID.TID 0000.0001) %MON dynstat_uvel_max             =   2.1079986075491E-01
(PID.TID 0000.0001) %MON dynstat_uvel_min             =  -9.5547200775207E-02
(PID.TID 0000.0001) %MON dynstat_uvel_mean            =   3.2859047207923E-05
(PID.TID 0000.0001) %MON dynstat_uvel_sd              =   2.1407828021355E-03
(PID.TID 0000.0001) %MON dynstat_uvel_del2            =   1.3759647551204E-06
(PID.TID 0000.0001) %MON dynstat_vvel_max             =   2.8119256972489E-01
(PID.TID 0000.0001) %MON dynstat_vvel_min             =  -1.6104119979364E-01
(PID.TID 0000.0001) %MON dynstat_vvel_mean            =  -1.0311000075684E-04
(PID.TID 0000.0001) %MON dynstat_vvel_sd              =   4.3643534956983E-03
(PID.TID 0000.0001) %MON dynstat_vvel_del2            =   1.6985908756982E-06
(PID.TID 0000.0001) %MON dynstat_wvel_max             =   5.1862738247545E-04
(PID.TID 0000.0001) %MON dynstat_wvel_min             =  -1.5995609957529E-04
(PID.TID 0000.0001) %MON dynstat_wvel_mean            =   3.2178822559862E-07
(PID.TID 0000.0001) %MON dynstat_wvel_sd              =   2.1796931232051E-06
(PID.TID 0000.0001) %MON dynstat_wvel_del2            =   6.3807604362292E-09
(PID.TID 0000.0001) %MON dynstat_theta_max            =   1.6581139384678E+01
(PID.TID 0000.0001) %MON dynstat_theta_min            =   4.1845834838058E+00
(PID.TID 0000.0001) %MON dynstat_theta_mean           =   8.3857306904625E+00
(PID.TID 0000.0001) %MON dynstat_theta_sd             =   3.8618202977092E+00
(PID.TID 0000.0001) %MON dynstat_theta_del2           =   2.2141689830801E-07
(PID.TID 0000.0001) %MON dynstat_salt_max             =   3.4476101203694E+01
(PID.TID 0000.0001) %MON dynstat_salt_min             =   3.3629968174065E+01
(PID.TID 0000.0001) %MON dynstat_salt_mean            =   3.4127681366343E+01
(PID.TID 0000.0001) %MON dynstat_salt_sd              =   2.8356880371833E-01
(PID.TID 0000.0001) %MON dynstat_salt_del2            =   6.9921582664783E-09
(PID.TID 0000.0001) %MON trAdv_CFL_u_max              =   6.3661956230639E-03
(PID.TID 0000.0001) %MON trAdv_CFL_v_max              =   1.1239854773971E-02
(PID.TID 0000.0001) %MON trAdv_CFL_w_max              =   1.1621983598163E-02
(PID.TID 0000.0001) %MON advcfl_uvel_max              =   6.3505091985513E-03
(PID.TID 0000.0001) %MON advcfl_vvel_max              =   7.2077557122689E-03
(PID.TID 0000.0001) %MON advcfl_wvel_max              =   1.2237936930211E-02
(PID.TID 0000.0001) %MON advcfl_W_hf_max              =   1.2965684561886E-02
(PID.TID 0000.0001) %MON pe_b_mean                    =   6.2002311676468E-08
(PID.TID 0000.0001) %MON ke_max                       =   4.4270784233403E-02
(PID.TID 0000.0001) %MON ke_mean                      =   1.1792651350098E-05
(PID.TID 0000.0001) %MON ke_vol                       =   1.0416098804501E+14
(PID.TID 0000.0001) %MON vort_r_min                   =  -9.4219501306763E-05
(PID.TID 0000.0001) %MON vort_r_max                   =   2.1221935356786E-04
(PID.TID 0000.0001) %MON vort_a_mean                  =   6.9456055905738E-04
(PID.TID 0000.0001) %MON vort_a_sd                    =   8.5414761256350E-07
(PID.TID 0000.0001) %MON vort_p_mean                  =   7.0575608364114E-04
(PID.TID 0000.0001) %MON vort_p_sd                    =   1.5175023846335E-04
(PID.TID 0000.0001) %MON surfExpan_theta_mean         =  -1.5610576383144E-11
(PID.TID 0000.0001) %MON surfExpan_salt_mean          =  -8.0509889664000E-21
(PID.TID 0000.0001) // =======================================================
(PID.TID 0000.0001) // End MONITOR dynamic field statistics
(PID.TID 0000.0001) // =======================================================
(PID.TID 0000.0001) // =======================================================
(PID.TID 0000.0001) // Begin OBCS MONITOR field statistics
(PID.TID 0000.0001) // =======================================================
(PID.TID 0000.0001) %MON obc_S_vVel_max               =   2.3098448816947E-04
(PID.TID 0000.0001) %MON obc_S_vVel_min               =  -7.1876138513580E-02
(PID.TID 0000.0001) %MON obc_S_vVel_mean              =  -2.8616942653632E-19
(PID.TID 0000.0001) %MON obc_S_vVel_sd                =   3.2174211901264E-03
(PID.TID 0000.0001) %MON obc_S_vVel_Int               =  -1.3678658206118E-10
(PID.TID 0000.0001) // =======================================================
(PID.TID 0000.0001) // End OBCS MONITOR field statistics
(PID.TID 0000.0001) // =======================================================
 EXTERNAL_FIELDS_LOAD,       180 : iP,iLd,i0,i1=   18   19   18   19 ; Wght=  0.5000000000  0.5000000000
 cg2d: Sum(rhs),rhsMax =   4.15667500419659E-13  3.78241069588160E-02
 EXTERNAL_FIELDS_LOAD,       181 : iP,iLd,i0,i1=   18   19   18   19 ; Wght=  0.4000000000  0.6000000000
 cg2d: Sum(rhs),rhsMax =   6.18172180111287E-13  3.71153666788564E-02
 EXTERNAL_FIELDS_LOAD,       182 : iP,iLd,i0,i1=   18   19   18   19 ; Wght=  0.3000000000  0.7000000000
 cg2d: Sum(rhs),rhsMax =   1.42108547152020E-13  3.65455585162054E-02
 EXTERNAL_FIELDS_LOAD,       183 : iP,iLd,i0,i1=   18   19   18   19 ; Wght=  0.2000000000  0.8000000000
 cg2d: Sum(rhs),rhsMax =   3.30402372128447E-13  3.61984646645778E-02
 EXTERNAL_FIELDS_LOAD,       184 : iP,iLd,i0,i1=   18   19   18   19 ; Wght=  0.1000000000  0.9000000000
 cg2d: Sum(rhs),rhsMax =   5.32907051820075E-14  3.57930636352379E-02
 EXTERNAL_FIELDS_LOAD,       185 : iP,iLd,i0,i1=   18   19   19   20 ; Wght=  1.0000000000  0.0000000000
 EXTERNAL_FIELDS_LOAD, it=       185 : Reading new data, i0,i1=   19   20 (prev=   18   19 )
(PID.TID 0000.0001)  MDS_READ_FIELD: opening global file: ../input/merid_halfgauss2p5hr_240x180.bin
(PID.TID 0000.0001)  MDS_READ_FIELD: opening global file: ../input/merid_halfgauss2p5hr_240x180.bin
 cg2d: Sum(rhs),rhsMax =   3.12638803734444E-13  3.53302303765484E-02
 EXTERNAL_FIELDS_LOAD,       186 : iP,iLd,i0,i1=   19   20   19   20 ; Wght=  0.9000000000  0.1000000000
 cg2d: Sum(rhs),rhsMax =   2.41584530158434E-13  3.48124818879584E-02
 EXTERNAL_FIELDS_LOAD,       187 : iP,iLd,i0,i1=   19   20   19   20 ; Wght=  0.8000000000  0.2000000000
 cg2d: Sum(rhs),rhsMax =   2.16715534406831E-13  3.42439482015270E-02
 EXTERNAL_FIELDS_LOAD,       188 : iP,iLd,i0,i1=   19   20   19   20 ; Wght=  0.7000000000  0.3000000000
 cg2d: Sum(rhs),rhsMax =   1.63424829224823E-13  3.36302783636736E-02
 EXTERNAL_FIELDS_LOAD,       189 : iP,iLd,i0,i1=   19   20   19   20 ; Wght=  0.6000000000  0.4000000000
 cg2d: Sum(rhs),rhsMax =   4.65405491922866E-13  3.29784857829282E-02
 EXTERNAL_FIELDS_LOAD,       190 : iP,iLd,i0,i1=   19   20   19   20 ; Wght=  0.5000000000  0.5000000000
 cg2d: Sum(rhs),rhsMax =   5.04485342389671E-13  3.22967397597658E-02
 EXTERNAL_FIELDS_LOAD,       191 : iP,iLd,i0,i1=   19   20   19   20 ; Wght=  0.4000000000  0.6000000000
 cg2d: Sum(rhs),rhsMax =   5.71986902286881E-13  3.15941121308494E-02
 EXTERNAL_FIELDS_LOAD,       192 : iP,iLd,i0,i1=   19   20   19   20 ; Wght=  0.3000000000  0.7000000000
 cg2d: Sum(rhs),rhsMax =   5.64881474929280E-13  3.08802896009137E-02
 EXTERNAL_FIELDS_LOAD,       193 : iP,iLd,i0,i1=   19   20   19   20 ; Wght=  0.2000000000  0.8000000000
 cg2d: Sum(rhs),rhsMax =   2.84217094304040E-13  3.01652634858164E-02
 EXTERNAL_FIELDS_LOAD,       194 : iP,iLd,i0,i1=   19   20   19   20 ; Wght=  0.1000000000  0.9000000000
 cg2d: Sum(rhs),rhsMax =   4.12114786740858E-13  2.94590092208123E-02
 EXTERNAL_FIELDS_LOAD,       195 : iP,iLd,i0,i1=   19   20   20   21 ; Wght=  1.0000000000  0.0000000000
 EXTERNAL_FIELDS_LOAD, it=       195 : Reading new data, i0,i1=   20   21 (prev=   19   20 )
(PID.TID 0000.0001)  MDS_READ_FIELD: opening global file: ../input/merid_halfgauss2p5hr_240x180.bin
(PID.TID 0000.0001)  MDS_READ_FIELD: opening global file: ../input/merid_halfgauss2p5hr_240x180.bin
 cg2d: Sum(rhs),rhsMax =   4.33431068813661E-13  2.87711680988321E-02
 EXTERNAL_FIELDS_LOAD,       196 : iP,iLd,i0,i1=   20   21   20   21 ; Wght=  0.9000000000  0.1000000000
 cg2d: Sum(rhs),rhsMax =   2.13162820728030E-14  2.81107433130870E-02
 EXTERNAL_FIELDS_LOAD,       197 : iP,iLd,i0,i1=   20   21   20   21 ; Wght=  0.8000000000  0.2000000000
 cg2d: Sum(rhs),rhsMax =   5.00932628710871E-13  2.74858215224752E-02
 EXTERNAL_FIELDS_LOAD,       198 : iP,iLd,i0,i1=   20   21   20   21 ; Wght=  0.7000000000  0.3000000000
 cg2d: Sum(rhs),rhsMax =   2.38031816479634E-13  2.69033298878298E-02
 EXTERNAL_FIELDS_LOAD,       199 : iP,iLd,i0,i1=   20   21   20   21 ; Wght=  0.6000000000  0.4000000000
 cg2d: Sum(rhs),rhsMax =   4.51194637207664E-13  2.63688369055516E-02
(PID.TID 0000.0001)      cg2d_init_res =   7.63588031753261E-01
(PID.TID 0000.0001)      cg2d_iters(min,last) =      -1      31
(PID.TID 0000.0001)      cg2d_last_res =   9.09582196935504E-08
(PID.TID 0000.0001) // =======================================================
(PID.TID 0000.0001) // Begin MONITOR dynamic field statistics
(PID.TID 0000.0001) // =======================================================
(PID.TID 0000.0001) %MON time_tsnumber                =                   200
(PID.TID 0000.0001) %MON time_secondsf                =   1.2000000000000E+04
(PID.TID 0000.0001) %MON dynstat_eta_max              =   1.7688445162307E-02
(PID.TID 0000.0001) %MON dynstat_eta_min              =  -2.3483170494653E-02
(PID.TID 0000.0001) %MON dynstat_eta_mean             =  -2.8398033808756E-19
(PID.TID 0000.0001) %MON dynstat_eta_sd               =   2.2056625278732E-03
(PID.TID 0000.0001) %MON dynstat_eta_del2             =   1.2658494629042E-06
(PID.TID 0000.0001) %MON dynstat_uvel_max             =   1.8960788933055E-01
(PID.TID 0000.0001) %MON dynstat_uvel_min             =  -8.4792627891002E-02
(PID.TID 0000.0001) %MON dynstat_uvel_mean            =  -3.4877814309462E-05
(PID.TID 0000.0001) %MON dynstat_uvel_sd              =   1.8519096981499E-03
(PID.TID 0000.0001) %MON dynstat_uvel_del2            =   1.5799465121656E-06
(PID.TID 0000.0001) %MON dynstat_vvel_max             =   2.7329829920315E-01
(PID.TID 0000.0001) %MON dynstat_vvel_min             =  -2.0267972854548E-01
(PID.TID 0000.0001) %MON dynstat_vvel_mean            =  -2.5135872402266E-05
(PID.TID 0000.0001) %MON dynstat_vvel_sd              =   4.4838273671233E-03
(PID.TID 0000.0001) %MON dynstat_vvel_del2            =   1.8780438004475E-06
(PID.TID 0000.0001) %MON dynstat_wvel_max             =   5.8158526393245E-04
(PID.TID 0000.0001) %MON dynstat_wvel_min             =  -2.1619541780522E-04
(PID.TID 0000.0001) %MON dynstat_wvel_mean            =   3.6353589136391E-07
(PID.TID 0000.0001) %MON dynstat_wvel_sd              =   2.6237553329370E-06
(PID.TID 0000.0001) %MON dynstat_wvel_del2            =   7.5468006188211E-09
(PID.TID 0000.0001) %MON dynstat_theta_max            =   1.6581290857147E+01
(PID.TID 0000.0001) %MON dynstat_theta_min            =   4.1845797336248E+00
(PID.TID 0000.0001) %MON dynstat_theta_mean           =   8.3857229488050E+00
(PID.TID 0000.0001) %MON dynstat_theta_sd             =   3.8618125718771E+00
(PID.TID 0000.0001) %MON dynstat_theta_del2           =   2.9389379048393E-07
(PID.TID 0000.0001) %MON dynstat_salt_max             =   3.4476101585930E+01
(PID.TID 0000.0001) %MON dynstat_salt_min             =   3.3629928105705E+01
(PID.TID 0000.0001) %MON dynstat_salt_mean            =   3.4127681838510E+01
(PID.TID 0000.0001) %MON dynstat_salt_sd              =   2.8356846592325E-01
(PID.TID 0000.0001) %MON dynstat_salt_del2            =   9.4163764967684E-09
(PID.TID 0000.0001) %MON trAdv_CFL_u_max              =   5.7545550641720E-03
(PID.TID 0000.0001) %MON trAdv_CFL_v_max              =   1.2208896279053E-02
(PID.TID 0000.0001) %MON trAdv_CFL_w_max              =   1.2902295258200E-02
(PID.TID 0000.0001) %MON advcfl_uvel_max              =   5.7120846332603E-03
(PID.TID 0000.0001) %MON advcfl_vvel_max              =   7.0054033759218E-03
(PID.TID 0000.0001) %MON advcfl_wvel_max              =   1.3684359151352E-02
(PID.TID 0000.0001) %MON advcfl_W_hf_max              =   1.4539631598311E-02
(PID.TID 0000.0001) %MON pe_b_mean                    =   3.6438932673941E-08
(PID.TID 0000.0001) %MON ke_max                       =   4.3112311022638E-02
(PID.TID 0000.0001) %MON ke_mean                      =   1.1724522426314E-05
(PID.TID 0000.0001) %MON ke_vol                       =   1.0416098804501E+14
(PID.TID 0000.0001) %MON vort_r_min                   =  -1.3006159882545E-04
(PID.TID 0000.0001) %MON vort_r_max                   =   1.9873200536002E-04
(PID.TID 0000.0001) %MON vort_a_mean                  =   6.9456055905738E-04
(PID.TID 0000.0001) %MON vort_a_sd                    =   8.4644308807935E-07
(PID.TID 0000.0001) %MON vort_p_mean                  =   7.0575608364114E-04
(PID.TID 0000.0001) %MON vort_p_sd                    =   1.5176031833307E-04
(PID.TID 0000.0001) %MON surfExpan_theta_mean         =  -1.8063321493379E-11
(PID.TID 0000.0001) %MON surfExpan_salt_mean          =  -4.6430419323273E-21
(PID.TID 0000.0001) // =======================================================
(PID.TID 0000.0001) // End MONITOR dynamic field statistics
(PID.TID 0000.0001) // =======================================================
(PID.TID 0000.0001) // =======================================================
(PID.TID 0000.0001) // Begin OBCS MONITOR field statistics
(PID.TID 0000.0001) // =======================================================
(PID.TID 0000.0001) %MON obc_S_vVel_max               =   3.6434650422452E-04
(PID.TID 0000.0001) %MON obc_S_vVel_min               =  -8.9421819249780E-02
(PID.TID 0000.0001) %MON obc_S_vVel_mean              =   1.2665126560124E-20
(PID.TID 0000.0001) %MON obc_S_vVel_sd                =   4.0032873101560E-03
(PID.TID 0000.0001) %MON obc_S_vVel_Int               =   6.0538241086761E-12
(PID.TID 0000.0001) // =======================================================
(PID.TID 0000.0001) // End OBCS MONITOR field statistics
(PID.TID 0000.0001) // =======================================================
 EXTERNAL_FIELDS_LOAD,       200 : iP,iLd,i0,i1=   20   21   20   21 ; Wght=  0.5000000000  0.5000000000
 cg2d: Sum(rhs),rhsMax =   4.08562073062058E-13  2.58864034665654E-02
 EXTERNAL_FIELDS_LOAD,       201 : iP,iLd,i0,i1=   20   21   20   21 ; Wght=  0.4000000000  0.6000000000
 cg2d: Sum(rhs),rhsMax =   3.19744231092045E-13  2.54584884748640E-02
 EXTERNAL_FIELDS_LOAD,       202 : iP,iLd,i0,i1=   20   21   20   21 ; Wght=  0.3000000000  0.7000000000
 cg2d: Sum(rhs),rhsMax =   5.11590769747272E-13  2.50859111553614E-02
 EXTERNAL_FIELDS_LOAD,       203 : iP,iLd,i0,i1=   20   21   20   21 ; Wght=  0.2000000000  0.8000000000
 cg2d: Sum(rhs),rhsMax =   1.49213974509621E-13  2.47678699776765E-02
 EXTERNAL_FIELDS_LOAD,       204 : iP,iLd,i0,i1=   20   21   20   21 ; Wght=  0.1000000000  0.9000000000
 cg2d: Sum(rhs),rhsMax =   3.83693077310454E-13  2.45020159300998E-02
 EXTERNAL_FIELDS_LOAD,       205 : iP,iLd,i0,i1=   20   21   21   22 ; Wght=  1.0000000000  0.0000000000
 EXTERNAL_FIELDS_LOAD, it=       205 : Reading new data, i0,i1=   21   22 (prev=   20   21 )
(PID.TID 0000.0001)  MDS_READ_FIELD: opening global file: ../input/merid_halfgauss2p5hr_240x180.bin
(PID.TID 0000.0001)  MDS_READ_FIELD: opening global file: ../input/merid_halfgauss2p5hr_240x180.bin
 cg2d: Sum(rhs),rhsMax =   5.25801624462474E-13  2.42845759341777E-02
 EXTERNAL_FIELDS_LOAD,       206 : iP,iLd,i0,i1=   21   22   21   22 ; Wght=  0.9000000000  0.1000000000
 cg2d: Sum(rhs),rhsMax =   7.14095449438901E-13  2.41105203847547E-02
 EXTERNAL_FIELDS_LOAD,       207 : iP,iLd,i0,i1=   21   22   21   22 ; Wght=  0.8000000000  0.2000000000
 cg2d: Sum(rhs),rhsMax =   1.49213974509621E-13  2.39737673436503E-02
 EXTERNAL_FIELDS_LOAD,       208 : iP,iLd,i0,i1=   21   22   21   22 ; Wght=  0.7000000000  0.3000000000
 cg2d: Sum(rhs),rhsMax =   3.94351218346856E-13  2.38674147883318E-02
 EXTERNAL_FIELDS_LOAD,       209 : iP,iLd,i0,i1=   21   22   21   22 ; Wght=  0.6000000000  0.4000000000
 cg2d: Sum(rhs),rhsMax =   5.36459765498876E-13  2.37839915755476E-02
 EXTERNAL_FIELDS_LOAD,       210 : iP,iLd,i0,i1=   21   22   21   22 ; Wght=  0.5000000000  0.5000000000
 cg2d: Sum(rhs),rhsMax =   3.01980662698043E-13  2.37157174402239E-02
 EXTERNAL_FIELDS_LOAD,       211 : iP,iLd,i0,i1=   21   22   21   22 ; Wght=  0.4000000000  0.6000000000
 cg2d: Sum(rhs),rhsMax =   4.83169060316868E-13  2.36547624122174E-02
 EXTERNAL_FIELDS_LOAD,       212 : iP,iLd,i0,i1=   21   22   21   22 ; Wght=  0.3000000000  0.7000000000
 cg2d: Sum(rhs),rhsMax =   6.28830321147689E-13  2.35934964800759E-02
 EXTERNAL_FIELDS_LOAD,       213 : iP,iLd,i0,i1=   21   22   21   22 ; Wght=  0.2000000000  0.8000000000
 cg2d: Sum(rhs),rhsMax =   3.33955085807247E-13  2.35247211274094E-02
 EXTERNAL_FIELDS_LOAD,       214 : iP,iLd,i0,i1=   21   22   21   22 ; Wght=  0.1000000000  0.9000000000
 cg2d: Sum(rhs),rhsMax =   5.25801624462474E-13  2.34708814048904E-02
 EXTERNAL_FIELDS_LOAD,       215 : iP,iLd,i0,i1=   21   22   22   23 ; Wght=  1.0000000000  0.0000000000
 EXTERNAL_FIELDS_LOAD, it=       215 : Reading new data, i0,i1=   22   23 (prev=   21   22 )
(PID.TID 0000.0001)  MDS_READ_FIELD: opening global file: ../input/merid_halfgauss2p5hr_240x180.bin
(PID.TID 0000.0001)  MDS_READ_FIELD: opening global file: ../input/merid_halfgauss2p5hr_240x180.bin
 cg2d: Sum(rhs),rhsMax =   4.19220214098459E-13  2.34332826585783E-02
 EXTERNAL_FIELDS_LOAD,       216 : iP,iLd,i0,i1=   22   23   22   23 ; Wght=  0.9000000000  0.1000000000
 cg2d: Sum(rhs),rhsMax =   6.28830321147689E-13  2.33713461047245E-02
 EXTERNAL_FIELDS_LOAD,       217 : iP,iLd,i0,i1=   22   23   22   23 ; Wght=  0.8000000000  0.2000000000
 cg2d: Sum(rhs),rhsMax =   3.62376795237651E-13  2.32806718200078E-02
 EXTERNAL_FIELDS_LOAD,       218 : iP,iLd,i0,i1=   22   23   22   23 ; Wght=  0.7000000000  0.3000000000
 cg2d: Sum(rhs),rhsMax =   2.45137243837235E-13  2.31574713515310E-02
 EXTERNAL_FIELDS_LOAD,       219 : iP,iLd,i0,i1=   22   23   22   23 ; Wght=  0.6000000000  0.4000000000
 cg2d: Sum(rhs),rhsMax =   4.83169060316868E-13  2.29986625448296E-02
(PID.TID 0000.0001)      cg2d_init_res =   8.69809166123944E-01
(PID.TID 0000.0001)      cg2d_iters(min,last) =      -1      32
(PID.TID 0000.0001)      cg2d_last_res =   9.08930892385386E-08
(PID.TID 0000.0001) // =======================================================
(PID.TID 0000.0001) // Begin MONITOR dynamic field statistics
(PID.TID 0000.0001) // =======================================================
(PID.TID 0000.0001) %MON time_tsnumber                =                   220
(PID.TID 0000.0001) %MON time_secondsf                =   1.3200000000000E+04
(PID.TID 0000.0001) %MON dynstat_eta_max              =   1.9378684273466E-02
(PID.TID 0000.0001) %MON dynstat_eta_min              =  -2.0762799322907E-02
(PID.TID 0000.0001) %MON dynstat_eta_mean             =  -3.1325666160175E-19
(PID.TID 0000.0001) %MON dynstat_eta_sd               =   2.6218867853238E-03
(PID.TID 0000.0001) %MON dynstat_eta_del2             =   1.1842014388388E-06
(PID.TID 0000.0001) %MON dynstat_uvel_max             =   1.6115956352833E-01
(PID.TID 0000.0001) %MON dynstat_uvel_min             =  -1.5833556883643E-01
(PID.TID 0000.0001) %MON dynstat_uvel_mean            =  -1.2807802106584E-05
(PID.TID 0000.0001) %MON dynstat_uvel_sd              =   4.5046397164123E-03
(PID.TID 0000.0001) %MON dynstat_uvel_del2            =   1.8526520752647E-06
(PID.TID 0000.0001) %MON dynstat_vvel_max             =   2.5436401522502E-01
(PID.TID 0000.0001) %MON dynstat_vvel_min             =  -1.9577032545196E-01
(PID.TID 0000.0001) %MON dynstat_vvel_mean            =   4.8378523616872E-05
(PID.TID 0000.0001) %MON dynstat_vvel_sd              =   1.7205766394638E-03
(PID.TID 0000.0001) %MON dynstat_vvel_del2            =   1.9204759115780E-06
(PID.TID 0000.0001) %MON dynstat_wvel_max             =   5.7872225674104E-04
(PID.TID 0000.0001) %MON dynstat_wvel_min             =  -3.0026551498527E-04
(PID.TID 0000.0001) %MON dynstat_wvel_mean            =   1.6867318842522E-07
(PID.TID 0000.0001) %MON dynstat_wvel_sd              =   2.3344563320253E-06
(PID.TID 0000.0001) %MON dynstat_wvel_del2            =   8.2456411370954E-09
(PID.TID 0000.0001) %MON dynstat_theta_max            =   1.6581298432240E+01
(PID.TID 0000.0001) %MON dynstat_theta_min            =   4.1845630541924E+00
(PID.TID 0000.0001) %MON dynstat_theta_mean           =   8.3857169589992E+00
(PID.TID 0000.0001) %MON dynstat_theta_sd             =   3.8618061884924E+00
(PID.TID 0000.0001) %MON dynstat_theta_del2           =   3.7069206805767E-07
(PID.TID 0000.0001) %MON dynstat_salt_max             =   3.4476103285975E+01
(PID.TID 0000.0001) %MON dynstat_salt_min             =   3.3629869836776E+01
(PID.TID 0000.0001) %MON dynstat_salt_mean            =   3.4127682201128E+01
(PID.TID 0000.0001) %MON dynstat_salt_sd              =   2.8356818784424E-01
(PID.TID 0000.0001) %MON dynstat_salt_del2            =   1.2051913811032E-08
(PID.TID 0000.0001) %MON trAdv_CFL_u_max              =   4.8929050059207E-03
(PID.TID 0000.0001) %MON trAdv_CFL_v_max              =   1.1584554285272E-02
(PID.TID 0000.0001) %MON trAdv_CFL_w_max              =   1.2883969497511E-02
(PID.TID 0000.0001) %MON advcfl_uvel_max              =   4.8550567678558E-03
(PID.TID 0000.0001) %MON advcfl_vvel_max              =   6.5200644722851E-03
(PID.TID 0000.0001) %MON advcfl_wvel_max              =   1.3616994276260E-02
(PID.TID 0000.0001) %MON advcfl_W_hf_max              =   1.4468056418526E-02
(PID.TID 0000.0001) %MON pe_b_mean                    =   5.1489110230793E-08
(PID.TID 0000.0001) %MON ke_max                       =   3.5699222012563E-02
(PID.TID 0000.0001) %MON ke_mean                      =   1.1613268817308E-05
(PID.TID 0000.0001) %MON ke_vol                       =   1.0416098804501E+14
(PID.TID 0000.0001) %MON vort_r_min                   =  -1.5768033389660E-04
(PID.TID 0000.0001) %MON vort_r_max                   =   1.7790126665513E-04
(PID.TID 0000.0001) %MON vort_a_mean                  =   6.9456055905738E-04
(PID.TID 0000.0001) %MON vort_a_sd                    =   8.5556635100377E-07
(PID.TID 0000.0001) %MON vort_p_mean                  =   7.0575608364114E-04
(PID.TID 0000.0001) %MON vort_p_sd                    =   1.5177152077204E-04
(PID.TID 0000.0001) %MON surfExpan_theta_mean         =  -2.0248750446796E-11
(PID.TID 0000.0001) %MON surfExpan_salt_mean          =  -1.7797374401932E-21
(PID.TID 0000.0001) // =======================================================
(PID.TID 0000.0001) // End MONITOR dynamic field statistics
(PID.TID 0000.0001) // =======================================================
(PID.TID 0000.0001) // =======================================================
(PID.TID 0000.0001) // Begin OBCS MONITOR field statistics
(PID.TID 0000.0001) // =======================================================
(PID.TID 0000.0001) %MON obc_S_vVel_max               =   2.7934265222410E-04
(PID.TID 0000.0001) %MON obc_S_vVel_min               =  -4.5391697746499E-02
(PID.TID 0000.0001) %MON obc_S_vVel_mean              =   8.8001818352034E-21
(PID.TID 0000.0001) %MON obc_S_vVel_sd                =   2.0324978753180E-03
(PID.TID 0000.0001) %MON obc_S_vVel_Int               =   4.2064129956998E-12
(PID.TID 0000.0001) // =======================================================
(PID.TID 0000.0001) // End OBCS MONITOR field statistics
(PID.TID 0000.0001) // =======================================================
 EXTERNAL_FIELDS_LOAD,       220 : iP,iLd,i0,i1=   22   23   22   23 ; Wght=  0.5000000000  0.5000000000
 cg2d: Sum(rhs),rhsMax =   3.62376795237651E-13  2.28019514587051E-02
 EXTERNAL_FIELDS_LOAD,       221 : iP,iLd,i0,i1=   22   23   22   23 ; Wght=  0.4000000000  0.6000000000
 cg2d: Sum(rhs),rhsMax =   5.47117906535277E-13  2.25658977560099E-02
 EXTERNAL_FIELDS_LOAD,       222 : iP,iLd,i0,i1=   22   23   22   23 ; Wght=  0.3000000000  0.7000000000
 cg2d: Sum(rhs),rhsMax =   4.61852778244065E-13  2.23944424002829E-02
 EXTERNAL_FIELDS_LOAD,       223 : iP,iLd,i0,i1=   22   23   22   23 ; Wght=  0.2000000000  0.8000000000
 cg2d: Sum(rhs),rhsMax =   3.55271367880050E-13  2.26437957812575E-02
 EXTERNAL_FIELDS_LOAD,       224 : iP,iLd,i0,i1=   22   23   22   23 ; Wght=  0.1000000000  0.9000000000
 cg2d: Sum(rhs),rhsMax =   7.21200876796502E-13  2.28548931981362E-02
 EXTERNAL_FIELDS_LOAD,       225 : iP,iLd,i0,i1=   22   23   23   24 ; Wght=  1.0000000000  0.0000000000
 EXTERNAL_FIELDS_LOAD, it=       225 : Reading new data, i0,i1=   23   24 (prev=   22   23 )
(PID.TID 0000.0001)  MDS_READ_FIELD: opening global file: ../input/merid_halfgauss2p5hr_240x180.bin
(PID.TID 0000.0001)  MDS_READ_FIELD: opening global file: ../input/merid_halfgauss2p5hr_240x180.bin
 cg2d: Sum(rhs),rhsMax =   5.54223333892878E-13  2.30281987034975E-02
 EXTERNAL_FIELDS_LOAD,       226 : iP,iLd,i0,i1=   23   24   23   24 ; Wght=  0.9000000000  0.1000000000
 cg2d: Sum(rhs),rhsMax =   4.68958205601666E-13  2.31642405978488E-02
 EXTERNAL_FIELDS_LOAD,       227 : iP,iLd,i0,i1=   23   24   23   24 ; Wght=  0.8000000000  0.2000000000
 cg2d: Sum(rhs),rhsMax =   2.94875235340442E-13  2.32636077742149E-02
 EXTERNAL_FIELDS_LOAD,       228 : iP,iLd,i0,i1=   23   24   23   24 ; Wght=  0.7000000000  0.3000000000
 cg2d: Sum(rhs),rhsMax =   2.98427949019242E-13  2.33269514044461E-02
 EXTERNAL_FIELDS_LOAD,       229 : iP,iLd,i0,i1=   23   24   23   24 ; Wght=  0.6000000000  0.4000000000
 cg2d: Sum(rhs),rhsMax =   6.92779167366098E-13  2.33549918463703E-02
 EXTERNAL_FIELDS_LOAD,       230 : iP,iLd,i0,i1=   23   24   23   24 ; Wght=  0.5000000000  0.5000000000
 cg2d: Sum(rhs),rhsMax =   3.69482222595252E-13  2.33485303232450E-02
 EXTERNAL_FIELDS_LOAD,       231 : iP,iLd,i0,i1=   23   24   23   24 ; Wght=  0.4000000000  0.6000000000
 cg2d: Sum(rhs),rhsMax =   3.37507799486048E-13  2.33084646189615E-02
 EXTERNAL_FIELDS_LOAD,       232 : iP,iLd,i0,i1=   23   24   23   24 ; Wght=  0.3000000000  0.7000000000
 cg2d: Sum(rhs),rhsMax =   4.26325641456060E-13  2.32358077617933E-02
 EXTERNAL_FIELDS_LOAD,       233 : iP,iLd,i0,i1=   23   24   23   24 ; Wght=  0.2000000000  0.8000000000
 cg2d: Sum(rhs),rhsMax =   3.80140363631654E-13  2.31317084516272E-02
 EXTERNAL_FIELDS_LOAD,       234 : iP,iLd,i0,i1=   23   24   23   24 ; Wght=  0.1000000000  0.9000000000
 cg2d: Sum(rhs),rhsMax =   8.20676859802916E-13  2.29974718328879E-02
 EXTERNAL_FIELDS_LOAD,       235 : iP,iLd,i0,i1=   23   24   24   25 ; Wght=  1.0000000000  0.0000000000
 EXTERNAL_FIELDS_LOAD, it=       235 : Reading new data, i0,i1=   24   25 (prev=   23   24 )
(PID.TID 0000.0001)  MDS_READ_FIELD: opening global file: ../input/merid_halfgauss2p5hr_240x180.bin
(PID.TID 0000.0001)  MDS_READ_FIELD: opening global file: ../input/merid_halfgauss2p5hr_240x180.bin
 cg2d: Sum(rhs),rhsMax =   5.71986902286881E-13  2.28345791361887E-02
 EXTERNAL_FIELDS_LOAD,       236 : iP,iLd,i0,i1=   24   25   24   25 ; Wght=  0.9000000000  0.1000000000
 cg2d: Sum(rhs),rhsMax =   3.94351218346856E-13  2.26447047102456E-02
 EXTERNAL_FIELDS_LOAD,       237 : iP,iLd,i0,i1=   24   25   24   25 ; Wght=  0.8000000000  0.2000000000
 cg2d: Sum(rhs),rhsMax =   1.70530256582424E-13  2.24297290414289E-02
 EXTERNAL_FIELDS_LOAD,       238 : iP,iLd,i0,i1=   24   25   24   25 ; Wght=  0.7000000000  0.3000000000
 cg2d: Sum(rhs),rhsMax =   1.63424829224823E-13  2.22242035991090E-02
 EXTERNAL_FIELDS_LOAD,       239 : iP,iLd,i0,i1=   24   25   24   25 ; Wght=  0.6000000000  0.4000000000
 cg2d: Sum(rhs),rhsMax =   5.79092329644482E-13  2.22831145425540E-02
(PID.TID 0000.0001)      cg2d_init_res =   5.29086249980578E-01
(PID.TID 0000.0001)      cg2d_iters(min,last) =      -1      32
(PID.TID 0000.0001)      cg2d_last_res =   6.39876600323790E-08
(PID.TID 0000.0001) // =======================================================
(PID.TID 0000.0001) // Begin MONITOR dynamic field statistics
(PID.TID 0000.0001) // =======================================================
(PID.TID 0000.0001) %MON time_tsnumber                =                   240
(PID.TID 0000.0001) %MON time_secondsf                =   1.4400000000000E+04
(PID.TID 0000.0001) %MON dynstat_eta_max              =   2.0147671188431E-02
(PID.TID 0000.0001) %MON dynstat_eta_min              =  -1.5700837918818E-02
(PID.TID 0000.0001) %MON dynstat_eta_mean             =  -4.2597050713135E-19
(PID.TID 0000.0001) %MON dynstat_eta_sd               =   3.2615328710816E-03
(PID.TID 0000.0001) %MON dynstat_eta_del2             =   1.0069932968802E-06
(PID.TID 0000.0001) %MON dynstat_uvel_max             =   1.5700866275937E-01
(PID.TID 0000.0001) %MON dynstat_uvel_min             =  -1.8858984180170E-01
(PID.TID 0000.0001) %MON dynstat_uvel_mean            =   3.7705717109303E-05
(PID.TID 0000.0001) %MON dynstat_uvel_sd              =   4.2380877419991E-03
(PID.TID 0000.0001) %MON dynstat_uvel_del2            =   2.0216634551973E-06
(PID.TID 0000.0001) %MON dynstat_vvel_max             =   2.3691280702006E-01
(PID.TID 0000.0001) %MON dynstat_vvel_min             =  -1.5763703635339E-01
(PID.TID 0000.0001) %MON dynstat_vvel_mean            =   1.6267477387832E-05
(PID.TID 0000.0001) %MON dynstat_vvel_sd              =   2.2434692037950E-03
(PID.TID 0000.0001) %MON dynstat_vvel_del2            =   1.9649453517939E-06
(PID.TID 0000.0001) %MON dynstat_wvel_max             =   5.3342685081470E-04
(PID.TID 0000.0001) %MON dynstat_wvel_min             =  -3.7070245759526E-04
(PID.TID 0000.0001) %MON dynstat_wvel_mean            =  -1.3466226015350E-07
(PID.TID 0000.0001) %MON dynstat_wvel_sd              =   2.1208642902493E-06
(PID.TID 0000.0001) %MON dynstat_wvel_del2            =   8.8890350068038E-09
(PID.TID 0000.0001) %MON dynstat_theta_max            =   1.6581180123029E+01
(PID.TID 0000.0001) %MON dynstat_theta_min            =   4.1845557842793E+00
(PID.TID 0000.0001) %MON dynstat_theta_mean           =   8.3857166605914E+00
(PID.TID 0000.0001) %MON dynstat_theta_sd             =   3.8618044503813E+00
(PID.TID 0000.0001) %MON dynstat_theta_del2           =   4.3837330517987E-07
(PID.TID 0000.0001) %MON dynstat_salt_max             =   3.4476104026959E+01
(PID.TID 0000.0001) %MON dynstat_salt_min             =   3.3629797485644E+01
(PID.TID 0000.0001) %MON dynstat_salt_mean            =   3.4127682218092E+01
(PID.TID 0000.0001) %MON dynstat_salt_sd              =   2.8356810834975E-01
(PID.TID 0000.0001) %MON dynstat_salt_del2            =   1.3800666964656E-08
(PID.TID 0000.0001) %MON trAdv_CFL_u_max              =   5.6784813972332E-03
(PID.TID 0000.0001) %MON trAdv_CFL_v_max              =   1.0205673724610E-02
(PID.TID 0000.0001) %MON trAdv_CFL_w_max              =   1.1927006616817E-02
(PID.TID 0000.0001) %MON advcfl_uvel_max              =   5.6814151623537E-03
(PID.TID 0000.0001) %MON advcfl_vvel_max              =   6.0727409681528E-03
(PID.TID 0000.0001) %MON advcfl_wvel_max              =   1.2551220019169E-02
(PID.TID 0000.0001) %MON advcfl_W_hf_max              =   1.3335671270367E-02
(PID.TID 0000.0001) %MON pe_b_mean                    =   7.9676644771431E-08
(PID.TID 0000.0001) %MON ke_max                       =   2.8111055423992E-02
(PID.TID 0000.0001) %MON ke_mean                      =   1.1490994378407E-05
(PID.TID 0000.0001) %MON ke_vol                       =   1.0416098804501E+14
(PID.TID 0000.0001) %MON vort_r_min                   =  -1.7019543674243E-04
(PID.TID 0000.0001) %MON vort_r_max                   =   1.6302718748712E-04
(PID.TID 0000.0001) %MON vort_a_mean                  =   6.9456055905738E-04
(PID.TID 0000.0001) %MON vort_a_sd                    =   8.5186772553959E-07
(PID.TID 0000.0001) %MON vort_p_mean                  =   7.0575608364114E-04
(PID.TID 0000.0001) %MON vort_p_sd                    =   1.5177361445579E-04
(PID.TID 0000.0001) %MON surfExpan_theta_mean         =  -5.6237818667609E-12
(PID.TID 0000.0001) %MON surfExpan_salt_mean          =   5.7180319363636E-23
(PID.TID 0000.0001) // =======================================================
(PID.TID 0000.0001) // End MONITOR dynamic field statistics
(PID.TID 0000.0001) // =======================================================
(PID.TID 0000.0001) // =======================================================
(PID.TID 0000.0001) // Begin OBCS MONITOR field statistics
(PID.TID 0000.0001) // =======================================================
(PID.TID 0000.0001) %MON obc_S_vVel_max               =   2.8884705714427E-02
(PID.TID 0000.0001) %MON obc_S_vVel_min               =  -1.8183716634667E-04
(PID.TID 0000.0001) %MON obc_S_vVel_mean              =  -1.8432813303467E-21
(PID.TID 0000.0001) %MON obc_S_vVel_sd                =   1.2929847164039E-03
(PID.TID 0000.0001) %MON obc_S_vVel_Int               =  -8.8107299234252E-13
(PID.TID 0000.0001) // =======================================================
(PID.TID 0000.0001) // End OBCS MONITOR field statistics
(PID.TID 0000.0001) // =======================================================
 EXTERNAL_FIELDS_LOAD,       240 : iP,iLd,i0,i1=   24   25   24   25 ; Wght=  0.5000000000  0.5000000000
 cg2d: Sum(rhs),rhsMax =   3.05533376376843E-13  2.25623361992744E-02
 EXTERNAL_FIELDS_LOAD,       241 : iP,iLd,i0,i1=   24   25   24   25 ; Wght=  0.4000000000  0.6000000000
 cg2d: Sum(rhs),rhsMax =   1.10134124042816E-13  2.28644873217651E-02
 EXTERNAL_FIELDS_LOAD,       242 : iP,iLd,i0,i1=   24   25   24   25 ; Wght=  0.3000000000  0.7000000000
 cg2d: Sum(rhs),rhsMax =   8.34887714518118E-13  2.31533805802295E-02
 EXTERNAL_FIELDS_LOAD,       243 : iP,iLd,i0,i1=   24   25   24   25 ; Wght=  0.2000000000  0.8000000000
 cg2d: Sum(rhs),rhsMax =   4.65405491922866E-13  2.33859575304190E-02
 EXTERNAL_FIELDS_LOAD,       244 : iP,iLd,i0,i1=   24   25   24   25 ; Wght=  0.1000000000  0.9000000000
 cg2d: Sum(rhs),rhsMax =   2.84217094304040E-13  2.35601596317212E-02
 EXTERNAL_FIELDS_LOAD,       245 : iP,iLd,i0,i1=   24   25   25   26 ; Wght=  1.0000000000  0.0000000000
 EXTERNAL_FIELDS_LOAD, it=       245 : Reading new data, i0,i1=   25   26 (prev=   24   25 )
(PID.TID 0000.0001)  MDS_READ_FIELD: opening global file: ../input/merid_halfgauss2p5hr_240x180.bin
(PID.TID 0000.0001)  MDS_READ_FIELD: opening global file: ../input/merid_halfgauss2p5hr_240x180.bin
 cg2d: Sum(rhs),rhsMax =   3.19744231092045E-13  2.36745819812049E-02
 EXTERNAL_FIELDS_LOAD,       246 : iP,iLd,i0,i1=   25   26   25   26 ; Wght=  0.9000000000  0.1000000000
 cg2d: Sum(rhs),rhsMax =   6.50146603220492E-13  2.37284716250218E-02
 EXTERNAL_FIELDS_LOAD,       247 : iP,iLd,i0,i1=   25   26   25   26 ; Wght=  0.8000000000  0.2000000000
 cg2d: Sum(rhs),rhsMax =   1.84741111297626E-13  2.37217180746806E-02
 EXTERNAL_FIELDS_LOAD,       248 : iP,iLd,i0,i1=   25   26   25   26 ; Wght=  0.7000000000  0.3000000000
 cg2d: Sum(rhs),rhsMax =  -4.26325641456060E-14  2.36548365204122E-02
 EXTERNAL_FIELDS_LOAD,       249 : iP,iLd,i0,i1=   25   26   25   26 ; Wght=  0.6000000000  0.4000000000
 cg2d: Sum(rhs),rhsMax =   1.20792265079217E-13  2.35289442627810E-02
 EXTERNAL_FIELDS_LOAD,       250 : iP,iLd,i0,i1=   25   26   25   26 ; Wght=  0.5000000000  0.5000000000
 cg2d: Sum(rhs),rhsMax =   5.29354338141275E-13  2.33457309067074E-02
 EXTERNAL_FIELDS_LOAD,       251 : iP,iLd,i0,i1=   25   26   25   26 ; Wght=  0.4000000000  0.6000000000
 cg2d: Sum(rhs),rhsMax =   4.01456645704457E-13  2.31074228805794E-02
 EXTERNAL_FIELDS_LOAD,       252 : iP,iLd,i0,i1=   25   26   25   26 ; Wght=  0.3000000000  0.7000000000
 cg2d: Sum(rhs),rhsMax =   2.66453525910038E-13  2.28167428584218E-02
 EXTERNAL_FIELDS_LOAD,       253 : iP,iLd,i0,i1=   25   26   25   26 ; Wght=  0.2000000000  0.8000000000
 cg2d: Sum(rhs),rhsMax =   5.93303184359684E-13  2.24768646762473E-02
 EXTERNAL_FIELDS_LOAD,       254 : iP,iLd,i0,i1=   25   26   25   26 ; Wght=  0.1000000000  0.9000000000
 cg2d: Sum(rhs),rhsMax =   5.54223333892878E-13  2.20913643456056E-02
 EXTERNAL_FIELDS_LOAD,       255 : iP,iLd,i0,i1=   25   26   26   27 ; Wght=  1.0000000000  0.0000000000
 EXTERNAL_FIELDS_LOAD, it=       255 : Reading new data, i0,i1=   26   27 (prev=   25   26 )
(PID.TID 0000.0001)  MDS_READ_FIELD: opening global file: ../input/merid_halfgauss2p5hr_240x180.bin
(PID.TID 0000.0001)  MDS_READ_FIELD: opening global file: ../input/merid_halfgauss2p5hr_240x180.bin
 cg2d: Sum(rhs),rhsMax =   1.40332190312620E-13  2.18353154091525E-02
 EXTERNAL_FIELDS_LOAD,       256 : iP,iLd,i0,i1=   26   27   26   27 ; Wght=  0.9000000000  0.1000000000
 cg2d: Sum(rhs),rhsMax =   4.54747350886464E-13  2.18427954873011E-02
 EXTERNAL_FIELDS_LOAD,       257 : iP,iLd,i0,i1=   26   27   26   27 ; Wght=  0.8000000000  0.2000000000
 cg2d: Sum(rhs),rhsMax =   2.57571741713036E-13  2.18224427041002E-02
 EXTERNAL_FIELDS_LOAD,       258 : iP,iLd,i0,i1=   26   27   26   27 ; Wght=  0.7000000000  0.3000000000
 cg2d: Sum(rhs),rhsMax =   2.38031816479634E-13  2.17722604275450E-02
 EXTERNAL_FIELDS_LOAD,       259 : iP,iLd,i0,i1=   26   27   26   27 ; Wght=  0.6000000000  0.4000000000
 cg2d: Sum(rhs),rhsMax =   6.82121026329696E-13  2.16904563162162E-02
(PID.TID 0000.0001)      cg2d_init_res =   7.21920248425790E-01
(PID.TID 0000.0001)      cg2d_iters(min,last) =      -1      32
(PID.TID 0000.0001)      cg2d_last_res =   8.52931380929636E-08
(PID.TID 0000.0001) // =======================================================
(PID.TID 0000.0001) // Begin MONITOR dynamic field statistics
(PID.TID 0000.0001) // =======================================================
(PID.TID 0000.0001) %MON time_tsnumber                =                   260
(PID.TID 0000.0001) %MON time_secondsf                =   1.5600000000000E+04
(PID.TID 0000.0001) %MON dynstat_eta_max              =   1.9628442360707E-02
(PID.TID 0000.0001) %MON dynstat_eta_min              =  -1.3594648697111E-02
(PID.TID 0000.0001) %MON dynstat_eta_mean             =  -4.7574025710545E-19
(PID.TID 0000.0001) %MON dynstat_eta_sd               =   2.7882839937381E-03
(PID.TID 0000.0001) %MON dynstat_eta_del2             =   9.3005469997532E-07
(PID.TID 0000.0001) %MON dynstat_uvel_max             =   1.6319519045363E-01
(PID.TID 0000.0001) %MON dynstat_uvel_min             =  -1.6056574395276E-01
(PID.TID 0000.0001) %MON dynstat_uvel_mean            =   4.3133729851432E-05
(PID.TID 0000.0001) %MON dynstat_uvel_sd              =   1.2657531185961E-03
(PID.TID 0000.0001) %MON dynstat_uvel_del2            =   2.0129869317301E-06
(PID.TID 0000.0001) %MON dynstat_vvel_max             =   2.0513961274051E-01
(PID.TID 0000.0001) %MON dynstat_vvel_min             =  -1.1471080202401E-01
(PID.TID 0000.0001) %MON dynstat_vvel_mean            =  -4.6468274474976E-05
(PID.TID 0000.0001) %MON dynstat_vvel_sd              =   4.6173747504806E-03
(PID.TID 0000.0001) %MON dynstat_vvel_del2            =   2.0335960510741E-06
(PID.TID 0000.0001) %MON dynstat_wvel_max             =   4.5888858702204E-04
(PID.TID 0000.0001) %MON dynstat_wvel_min             =  -4.0558624780121E-04
(PID.TID 0000.0001) %MON dynstat_wvel_mean            =  -3.5220883950828E-07
(PID.TID 0000.0001) %MON dynstat_wvel_sd              =   2.5767089916754E-06
(PID.TID 0000.0001) %MON dynstat_wvel_del2            =   9.3503003425041E-09
(PID.TID 0000.0001) %MON dynstat_theta_max            =   1.6581019744161E+01
(PID.TID 0000.0001) %MON dynstat_theta_min            =   4.1845626239982E+00
(PID.TID 0000.0001) %MON dynstat_theta_mean           =   8.3857222033877E+00
(PID.TID 0000.0001) %MON dynstat_theta_sd             =   3.8618074561985E+00
(PID.TID 0000.0001) %MON dynstat_theta_del2           =   4.9943481227814E-07
(PID.TID 0000.0001) %MON dynstat_salt_max             =   3.4476103329823E+01
(PID.TID 0000.0001) %MON dynstat_salt_min             =   3.3629723608564E+01
(PID.TID 0000.0001) %MON dynstat_salt_mean            =   3.4127681880015E+01
(PID.TID 0000.0001) %MON dynstat_salt_sd              =   2.8356822874850E-01
(PID.TID 0000.0001) %MON dynstat_salt_del2            =   1.5296899317208E-08
(PID.TID 0000.0001) %MON trAdv_CFL_u_max              =   4.9180640100456E-03
(PID.TID 0000.0001) %MON trAdv_CFL_v_max              =   8.2885018236125E-03
(PID.TID 0000.0001) %MON trAdv_CFL_w_max              =   1.0282535849108E-02
(PID.TID 0000.0001) %MON advcfl_uvel_max              =   4.9163816068174E-03
(PID.TID 0000.0001) %MON advcfl_vvel_max              =   5.2583047161939E-03
(PID.TID 0000.0001) %MON advcfl_wvel_max              =   1.0797378518166E-02
(PID.TID 0000.0001) %MON advcfl_W_hf_max              =   1.1472214675551E-02
(PID.TID 0000.0001) %MON pe_b_mean                    =   5.8231976214783E-08
(PID.TID 0000.0001) %MON ke_max                       =   2.2147990762246E-02
(PID.TID 0000.0001) %MON ke_mean                      =   1.1425619540229E-05
(PID.TID 0000.0001) %MON ke_vol                       =   1.0416098804501E+14
(PID.TID 0000.0001) %MON vort_r_min                   =  -1.6372930536460E-04
(PID.TID 0000.0001) %MON vort_r_max                   =   1.4686245793528E-04
(PID.TID 0000.0001) %MON vort_a_mean                  =   6.9456055905738E-04
(PID.TID 0000.0001) %MON vort_a_sd                    =   8.2808298900146E-07
(PID.TID 0000.0001) %MON vort_p_mean                  =   7.0575608364114E-04
(PID.TID 0000.0001) %MON vort_p_sd                    =   1.5176299391000E-04
(PID.TID 0000.0001) %MON surfExpan_theta_mean         =   6.5423602645798E-12
(PID.TID 0000.0001) %MON surfExpan_salt_mean          =  -6.1297302357818E-21
(PID.TID 0000.0001) // =======================================================
(PID.TID 0000.0001) // End MONITOR dynamic field statistics
(PID.TID 0000.0001) // =======================================================
(PID.TID 0000.0001) // =======================================================
(PID.TID 0000.0001) // Begin OBCS MONITOR field statistics
(PID.TID 0000.0001) // =======================================================
(PID.TID 0000.0001) %MON obc_S_vVel_max               =   8.3246736819289E-02
(PID.TID 0000.0001) %MON obc_S_vVel_min               =  -3.0001990347391E-04
(PID.TID 0000.0001) %MON obc_S_vVel_mean              =  -9.2937055462317E-20
(PID.TID 0000.0001) %MON obc_S_vVel_sd                =   3.7266642344217E-03
(PID.TID 0000.0001) %MON obc_S_vVel_Int               =  -4.4423131839721E-11
(PID.TID 0000.0001) // =======================================================
(PID.TID 0000.0001) // End OBCS MONITOR field statistics
(PID.TID 0000.0001) // =======================================================
 EXTERNAL_FIELDS_LOAD,       260 : iP,iLd,i0,i1=   26   27   26   27 ; Wght=  0.5000000000  0.5000000000
 cg2d: Sum(rhs),rhsMax =   4.28101998295460E-13  2.15754651096444E-02
 EXTERNAL_FIELDS_LOAD,       261 : iP,iLd,i0,i1=   26   27   26   27 ; Wght=  0.4000000000  0.6000000000
 cg2d: Sum(rhs),rhsMax =   7.08766378920700E-13  2.14259697502176E-02
 EXTERNAL_FIELDS_LOAD,       262 : iP,iLd,i0,i1=   26   27   26   27 ; Wght=  0.3000000000  0.7000000000
 cg2d: Sum(rhs),rhsMax =   3.14415160573844E-13  2.12409204955241E-02
 EXTERNAL_FIELDS_LOAD,       263 : iP,iLd,i0,i1=   26   27   26   27 ; Wght=  0.2000000000  0.8000000000
 cg2d: Sum(rhs),rhsMax =   1.95399252334028E-13  2.10195516710593E-02
 EXTERNAL_FIELDS_LOAD,       264 : iP,iLd,i0,i1=   26   27   26   27 ; Wght=  0.1000000000  0.9000000000
 cg2d: Sum(rhs),rhsMax =   4.15667500419659E-13  2.07613957135034E-02
 EXTERNAL_FIELDS_LOAD,       265 : iP,iLd,i0,i1=   26   27   27   28 ; Wght=  1.0000000000  0.0000000000
 EXTERNAL_FIELDS_LOAD, it=       265 : Reading new data, i0,i1=   27   28 (prev=   26   27 )
(PID.TID 0000.0001)  MDS_READ_FIELD: opening global file: ../input/merid_halfgauss2p5hr_240x180.bin
(PID.TID 0000.0001)  MDS_READ_FIELD: opening global file: ../input/merid_halfgauss2p5hr_240x180.bin
 cg2d: Sum(rhs),rhsMax =   3.87245790989255E-13  2.04662941660529E-02
 EXTERNAL_FIELDS_LOAD,       266 : iP,iLd,i0,i1=   27   28   27   28 ; Wght=  0.9000000000  0.1000000000
 cg2d: Sum(rhs),rhsMax =   7.83373366175510E-13  2.01344053107920E-02
 EXTERNAL_FIELDS_LOAD,       267 : iP,iLd,i0,i1=   27   28   27   28 ; Wght=  0.8000000000  0.2000000000
 cg2d: Sum(rhs),rhsMax =   5.68434188608080E-13  1.97662081594521E-02
 EXTERNAL_FIELDS_LOAD,       268 : iP,iLd,i0,i1=   27   28   27   28 ; Wght=  0.7000000000  0.3000000000
 cg2d: Sum(rhs),rhsMax =   4.76063632959267E-13  1.93625025730057E-02
 EXTERNAL_FIELDS_LOAD,       269 : iP,iLd,i0,i1=   27   28   27   28 ; Wght=  0.6000000000  0.4000000000
 cg2d: Sum(rhs),rhsMax =   7.49622586226906E-13  1.89244053415174E-02
 EXTERNAL_FIELDS_LOAD,       270 : iP,iLd,i0,i1=   27   28   27   28 ; Wght=  0.5000000000  0.5000000000
 cg2d: Sum(rhs),rhsMax =   6.75015598972095E-13  1.84626531693465E-02
 EXTERNAL_FIELDS_LOAD,       271 : iP,iLd,i0,i1=   27   28   27   28 ; Wght=  0.4000000000  0.6000000000
 cg2d: Sum(rhs),rhsMax =   6.85673740008497E-13  1.80216116605364E-02
 EXTERNAL_FIELDS_LOAD,       272 : iP,iLd,i0,i1=   27   28   27   28 ; Wght=  0.3000000000  0.7000000000
 cg2d: Sum(rhs),rhsMax =   7.47846229387505E-13  1.75532589132902E-02
 EXTERNAL_FIELDS_LOAD,       273 : iP,iLd,i0,i1=   27   28   27   28 ; Wght=  0.2000000000  0.8000000000
 cg2d: Sum(rhs),rhsMax =   4.13891143580258E-13  1.75662780777156E-02
 EXTERNAL_FIELDS_LOAD,       274 : iP,iLd,i0,i1=   27   28   27   28 ; Wght=  0.1000000000  0.9000000000
 cg2d: Sum(rhs),rhsMax =   5.51558798633778E-13  1.76204337056790E-02
 EXTERNAL_FIELDS_LOAD,       275 : iP,iLd,i0,i1=   27   28   28   29 ; Wght=  1.0000000000  0.0000000000
 EXTERNAL_FIELDS_LOAD, it=       275 : Reading new data, i0,i1=   28   29 (prev=   27   28 )
(PID.TID 0000.0001)  MDS_READ_FIELD: opening global file: ../input/merid_halfgauss2p5hr_240x180.bin
(PID.TID 0000.0001)  MDS_READ_FIELD: opening global file: ../input/merid_halfgauss2p5hr_240x180.bin
 cg2d: Sum(rhs),rhsMax =   4.92939022933570E-13  1.76489259942393E-02
 EXTERNAL_FIELDS_LOAD,       276 : iP,iLd,i0,i1=   28   29   28   29 ; Wght=  0.9000000000  0.1000000000
 cg2d: Sum(rhs),rhsMax =   7.32747196252603E-13  1.76511873886888E-02
 EXTERNAL_FIELDS_LOAD,       277 : iP,iLd,i0,i1=   28   29   28   29 ; Wght=  0.8000000000  0.2000000000
 cg2d: Sum(rhs),rhsMax =   8.34887714518118E-13  1.76268415315297E-02
 EXTERNAL_FIELDS_LOAD,       278 : iP,iLd,i0,i1=   28   29   28   29 ; Wght=  0.7000000000  0.3000000000
 cg2d: Sum(rhs),rhsMax =   6.80344669490296E-13  1.75756956850821E-02
 EXTERNAL_FIELDS_LOAD,       279 : iP,iLd,i0,i1=   28   29   28   29 ; Wght=  0.6000000000  0.4000000000
 cg2d: Sum(rhs),rhsMax =   7.78932474077010E-13  1.74977300392865E-02
(PID.TID 0000.0001)      cg2d_init_res =   9.94771756128298E-01
(PID.TID 0000.0001)      cg2d_iters(min,last) =      -1      33
(PID.TID 0000.0001)      cg2d_last_res =   6.21362341330873E-08
(PID.TID 0000.0001) // =======================================================
(PID.TID 0000.0001) // Begin MONITOR dynamic field statistics
(PID.TID 0000.0001) // =======================================================
(PID.TID 0000.0001) %MON time_tsnumber                =                   280
(PID.TID 0000.0001) %MON time_secondsf                =   1.6800000000000E+04
(PID.TID 0000.0001) %MON dynstat_eta_max              =   1.5458753922149E-02
(PID.TID 0000.0001) %MON dynstat_eta_min              =  -1.5784304451936E-02
(PID.TID 0000.0001) %MON dynstat_eta_mean             =  -3.4381382426967E-19
(PID.TID 0000.0001) %MON dynstat_eta_sd               =   1.9341516098841E-03
(PID.TID 0000.0001) %MON dynstat_eta_del2             =   8.9931877564813E-07
(PID.TID 0000.0001) %MON dynstat_uvel_max             =   1.5369985397082E-01
(PID.TID 0000.0001) %MON dynstat_uvel_min             =  -9.5592238830294E-02
(PID.TID 0000.0001) %MON dynstat_uvel_mean            =   7.8844756276490E-06
(PID.TID 0000.0001) %MON dynstat_uvel_sd              =   2.6187347232517E-03
(PID.TID 0000.0001) %MON dynstat_uvel_del2            =   1.9065763333334E-06
(PID.TID 0000.0001) %MON dynstat_vvel_max             =   1.8096767789225E-01
(PID.TID 0000.0001) %MON dynstat_vvel_min             =  -9.1229752103934E-02
(PID.TID 0000.0001) %MON dynstat_vvel_mean            =  -6.3041250505071E-05
(PID.TID 0000.0001) %MON dynstat_vvel_sd              =   3.9950938095633E-03
(PID.TID 0000.0001) %MON dynstat_vvel_del2            =   2.0361516776538E-06
(PID.TID 0000.0001) %MON dynstat_wvel_max             =   3.9088433785309E-04
(PID.TID 0000.0001) %MON dynstat_wvel_min             =  -3.9883684157054E-04
(PID.TID 0000.0001) %MON dynstat_wvel_mean            =  -3.4100543089887E-07
(PID.TID 0000.0001) %MON dynstat_wvel_sd              =   2.5735956046983E-06
(PID.TID 0000.0001) %MON dynstat_wvel_del2            =   9.4991720631325E-09
(PID.TID 0000.0001) %MON dynstat_theta_max            =   1.6580895959523E+01
(PID.TID 0000.0001) %MON dynstat_theta_min            =   4.1845736870321E+00
(PID.TID 0000.0001) %MON dynstat_theta_mean           =   8.3857299899474E+00
(PID.TID 0000.0001) %MON dynstat_theta_sd             =   3.8618122636041E+00
(PID.TID 0000.0001) %MON dynstat_theta_del2           =   5.5509892221313E-07
(PID.TID 0000.0001) %MON dynstat_salt_max             =   3.4476102202229E+01
(PID.TID 0000.0001) %MON dynstat_salt_min             =   3.3629663388441E+01
(PID.TID 0000.0001) %MON dynstat_salt_mean            =   3.4127681405482E+01
(PID.TID 0000.0001) %MON dynstat_salt_sd              =   2.8356842321132E-01
(PID.TID 0000.0001) %MON dynstat_salt_del2            =   1.7096750314465E-08
(PID.TID 0000.0001) %MON trAdv_CFL_u_max              =   4.6556182828887E-03
(PID.TID 0000.0001) %MON trAdv_CFL_v_max              =   6.7997125334414E-03
(PID.TID 0000.0001) %MON trAdv_CFL_w_max              =   9.1950099214762E-03
(PID.TID 0000.0001) %MON advcfl_uvel_max              =   4.6303272353322E-03
(PID.TID 0000.0001) %MON advcfl_vvel_max              =   4.6386110191110E-03
(PID.TID 0000.0001) %MON advcfl_wvel_max              =   9.1972785377198E-03
(PID.TID 0000.0001) %MON advcfl_W_hf_max              =   9.7721084463273E-03
(PID.TID 0000.0001) %MON pe_b_mean                    =   2.8020026700667E-08
(PID.TID 0000.0001) %MON ke_max                       =   1.7832129888156E-02
(PID.TID 0000.0001) %MON ke_mean                      =   1.1373670169183E-05
(PID.TID 0000.0001) %MON ke_vol                       =   1.0416098804501E+14
(PID.TID 0000.0001) %MON vort_r_min                   =  -1.4250511362065E-04
(PID.TID 0000.0001) %MON vort_r_max                   =   1.3343033277913E-04
(PID.TID 0000.0001) %MON vort_a_mean                  =   6.9456055905738E-04
(PID.TID 0000.0001) %MON vort_a_sd                    =   8.2077159483649E-07
(PID.TID 0000.0001) %MON vort_p_mean                  =   7.0575608364114E-04
(PID.TID 0000.0001) %MON vort_p_sd                    =   1.5174873772756E-04
(PID.TID 0000.0001) %MON surfExpan_theta_mean         =   2.6253897250903E-12
(PID.TID 0000.0001) %MON surfExpan_salt_mean          =  -6.6329170461818E-21
(PID.TID 0000.0001) // =======================================================
(PID.TID 0000.0001) // End MONITOR dynamic field statistics
(PID.TID 0000.0001) // =======================================================
(PID.TID 0000.0001) // =======================================================
(PID.TID 0000.0001) // Begin OBCS MONITOR field statistics
(PID.TID 0000.0001) // =======================================================
(PID.TID 0000.0001) %MON obc_S_vVel_max               =   8.2479574652805E-02
(PID.TID 0000.0001) %MON obc_S_vVel_min               =  -3.5635667356228E-04
(PID.TID 0000.0001) %MON obc_S_vVel_mean              =  -1.6470610596968E-20
(PID.TID 0000.0001) %MON obc_S_vVel_sd                =   3.6925925276934E-03
(PID.TID 0000.0001) %MON obc_S_vVel_Int               =  -7.8728135122219E-12
(PID.TID 0000.0001) // =======================================================
(PID.TID 0000.0001) // End OBCS MONITOR field statistics
(PID.TID 0000.0001) // =======================================================
 EXTERNAL_FIELDS_LOAD,       280 : iP,iLd,i0,i1=   28   29   28   29 ; Wght=  0.5000000000  0.5000000000
 cg2d: Sum(rhs),rhsMax =   5.67990099398230E-13  1.74640153362647E-02
 EXTERNAL_FIELDS_LOAD,       281 : iP,iLd,i0,i1=   28   29   28   29 ; Wght=  0.4000000000  0.6000000000
 cg2d: Sum(rhs),rhsMax =   5.92415005939984E-13  1.76829118896180E-02
 EXTERNAL_FIELDS_LOAD,       282 : iP,iLd,i0,i1=   28   29   28   29 ; Wght=  0.3000000000  0.7000000000
 cg2d: Sum(rhs),rhsMax =   5.82867087928207E-13  1.78615745108136E-02
 EXTERNAL_FIELDS_LOAD,       283 : iP,iLd,i0,i1=   28   29   28   29 ; Wght=  0.2000000000  0.8000000000
 cg2d: Sum(rhs),rhsMax =   6.87949697208978E-13  1.80027180483631E-02
 EXTERNAL_FIELDS_LOAD,       284 : iP,iLd,i0,i1=   28   29   28   29 ; Wght=  0.1000000000  0.9000000000
 cg2d: Sum(rhs),rhsMax =   5.28688204326500E-13  1.81092918438076E-02
 EXTERNAL_FIELDS_LOAD,       285 : iP,iLd,i0,i1=   28   29   29   30 ; Wght=  1.0000000000  0.0000000000
 EXTERNAL_FIELDS_LOAD, it=       285 : Reading new data, i0,i1=   29   30 (prev=   28   29 )
(PID.TID 0000.0001)  MDS_READ_FIELD: opening global file: ../input/merid_halfgauss2p5hr_240x180.bin
(PID.TID 0000.0001)  MDS_READ_FIELD: opening global file: ../input/merid_halfgauss2p5hr_240x180.bin
 cg2d: Sum(rhs),rhsMax =   5.50337553306690E-13  1.81844232701255E-02
 EXTERNAL_FIELDS_LOAD,       286 : iP,iLd,i0,i1=   29   30   29   30 ; Wght=  0.9000000000  0.1000000000
 cg2d: Sum(rhs),rhsMax =   5.30686605770825E-13  1.82313589516756E-02
 EXTERNAL_FIELDS_LOAD,       287 : iP,iLd,i0,i1=   29   30   29   30 ; Wght=  0.8000000000  0.2000000000
 cg2d: Sum(rhs),rhsMax =   4.87165863205519E-13  1.85794568981678E-02
 EXTERNAL_FIELDS_LOAD,       288 : iP,iLd,i0,i1=   29   30   29   30 ; Wght=  0.7000000000  0.3000000000
 cg2d: Sum(rhs),rhsMax =   5.07593966858622E-13  1.89100159235318E-02
 EXTERNAL_FIELDS_LOAD,       289 : iP,iLd,i0,i1=   29   30   29   30 ; Wght=  0.6000000000  0.4000000000
 cg2d: Sum(rhs),rhsMax =   5.97744076458184E-13  1.92077617979735E-02
 EXTERNAL_FIELDS_LOAD,       290 : iP,iLd,i0,i1=   29   30   29   30 ; Wght=  0.5000000000  0.5000000000
 cg2d: Sum(rhs),rhsMax =   4.38760139331862E-13  1.94739491639028E-02
 EXTERNAL_FIELDS_LOAD,       291 : iP,iLd,i0,i1=   29   30   29   30 ; Wght=  0.4000000000  0.6000000000
 cg2d: Sum(rhs),rhsMax =   5.74651437545981E-13  1.97098489733029E-02
 EXTERNAL_FIELDS_LOAD,       292 : iP,iLd,i0,i1=   29   30   29   30 ; Wght=  0.3000000000  0.7000000000
 cg2d: Sum(rhs),rhsMax =   6.49258424800792E-13  1.99167052284775E-02
 EXTERNAL_FIELDS_LOAD,       293 : iP,iLd,i0,i1=   29   30   29   30 ; Wght=  0.2000000000  0.8000000000
 cg2d: Sum(rhs),rhsMax =   4.52082815627364E-13  2.00956947578310E-02
 EXTERNAL_FIELDS_LOAD,       294 : iP,iLd,i0,i1=   29   30   29   30 ; Wght=  0.1000000000  0.9000000000
 cg2d: Sum(rhs),rhsMax =   6.08402217494586E-13  2.02478910035886E-02
 EXTERNAL_FIELDS_LOAD,       295 : iP,iLd,i0,i1=   29   30   30   31 ; Wght=  1.0000000000  0.0000000000
 EXTERNAL_FIELDS_LOAD, it=       295 : Reading new data, i0,i1=   30   31 (prev=   29   30 )
(PID.TID 0000.0001)  MDS_READ_FIELD: opening global file: ../input/merid_halfgauss2p5hr_240x180.bin
(PID.TID 0000.0001)  MDS_READ_FIELD: opening global file: ../input/merid_halfgauss2p5hr_240x180.bin
 cg2d: Sum(rhs),rhsMax =   4.40536496171262E-13  2.03742326660296E-02
 EXTERNAL_FIELDS_LOAD,       296 : iP,iLd,i0,i1=   30   31   30   31 ; Wght=  0.9000000000  0.1000000000
 cg2d: Sum(rhs),rhsMax =   4.68958205601666E-13  2.04754978970415E-02
 EXTERNAL_FIELDS_LOAD,       297 : iP,iLd,i0,i1=   30   31   30   31 ; Wght=  0.8000000000  0.2000000000
 cg2d: Sum(rhs),rhsMax =   5.71986902286881E-13  2.05522845699744E-02
 EXTERNAL_FIELDS_LOAD,       298 : iP,iLd,i0,i1=   30   31   30   31 ; Wght=  0.7000000000  0.3000000000
 cg2d: Sum(rhs),rhsMax =   4.36983782492462E-13  2.08520103609244E-02
 EXTERNAL_FIELDS_LOAD,       299 : iP,iLd,i0,i1=   30   31   30   31 ; Wght=  0.6000000000  0.4000000000
 cg2d: Sum(rhs),rhsMax =   5.63105118089879E-13  2.11235895955010E-02
(PID.TID 0000.0001)      cg2d_init_res =   6.63811854254787E-01
(PID.TID 0000.0001)      cg2d_iters(min,last) =      -1      31
(PID.TID 0000.0001)      cg2d_last_res =   9.82159190020043E-08
(PID.TID 0000.0001) // =======================================================
(PID.TID 0000.0001) // Begin MONITOR dynamic field statistics
(PID.TID 0000.0001) // =======================================================
(PID.TID 0000.0001) %MON time_tsnumber                =                   300
(PID.TID 0000.0001) %MON time_secondsf                =   1.8000000000000E+04
(PID.TID 0000.0001) %MON dynstat_eta_max              =   1.9037236109262E-02
(PID.TID 0000.0001) %MON dynstat_eta_min              =  -1.1468561841165E-02
(PID.TID 0000.0001) %MON dynstat_eta_mean             =  -3.6668595201513E-19
(PID.TID 0000.0001) %MON dynstat_eta_sd               =   2.0167512599024E-03
(PID.TID 0000.0001) %MON dynstat_eta_del2             =   8.0890154741962E-07
(PID.TID 0000.0001) %MON dynstat_uvel_max             =   1.7465111863604E-01
(PID.TID 0000.0001) %MON dynstat_uvel_min             =  -5.8376108396724E-02
(PID.TID 0000.0001) %MON dynstat_uvel_mean            =  -3.0265497431791E-05
(PID.TID 0000.0001) %MON dynstat_uvel_sd              =   4.6721104383265E-03
(PID.TID 0000.0001) %MON dynstat_uvel_del2            =   1.8168061848825E-06
(PID.TID 0000.0001) %MON dynstat_vvel_max             =   1.3469745731199E-01
(PID.TID 0000.0001) %MON dynstat_vvel_min             =  -9.7390855729961E-02
(PID.TID 0000.0001) %MON dynstat_vvel_mean            =  -4.9895303455994E-05
(PID.TID 0000.0001) %MON dynstat_vvel_sd              =   8.7202674045850E-04
(PID.TID 0000.0001) %MON dynstat_vvel_del2            =   1.9159519057850E-06
(PID.TID 0000.0001) %MON dynstat_wvel_max             =   3.4048111498571E-04
(PID.TID 0000.0001) %MON dynstat_wvel_min             =  -3.5962095331812E-04
(PID.TID 0000.0001) %MON dynstat_wvel_mean            =  -1.1096766349822E-07
(PID.TID 0000.0001) %MON dynstat_wvel_sd              =   2.1677828729441E-06
(PID.TID 0000.0001) %MON dynstat_wvel_del2            =   9.2490694126736E-09
(PID.TID 0000.0001) %MON dynstat_theta_max            =   1.6580830248836E+01
(PID.TID 0000.0001) %MON dynstat_theta_min            =   4.1845799552636E+00
(PID.TID 0000.0001) %MON dynstat_theta_mean           =   8.3857349895389E+00
(PID.TID 0000.0001) %MON dynstat_theta_sd             =   3.8618147981404E+00
(PID.TID 0000.0001) %MON dynstat_theta_del2           =   5.9623320571862E-07
(PID.TID 0000.0001) %MON dynstat_salt_max             =   3.4476101563342E+01
(PID.TID 0000.0001) %MON dynstat_salt_min             =   3.3629628715755E+01
(PID.TID 0000.0001) %MON dynstat_salt_mean            =   3.4127681100506E+01
(PID.TID 0000.0001) %MON dynstat_salt_sd              =   2.8356851953352E-01
(PID.TID 0000.0001) %MON dynstat_salt_del2            =   1.8667690531760E-08
(PID.TID 0000.0001) %MON trAdv_CFL_u_max              =   5.2208883509394E-03
(PID.TID 0000.0001) %MON trAdv_CFL_v_max              =   5.9802388232534E-03
(PID.TID 0000.0001) %MON trAdv_CFL_w_max              =   8.4914805038416E-03
(PID.TID 0000.0001) %MON advcfl_uvel_max              =   5.2615003229295E-03
(PID.TID 0000.0001) %MON advcfl_vvel_max              =   3.4526743303299E-03
(PID.TID 0000.0001) %MON advcfl_wvel_max              =   8.0113203526049E-03
(PID.TID 0000.0001) %MON advcfl_W_hf_max              =   8.5120278746427E-03
(PID.TID 0000.0001) %MON pe_b_mean                    =   3.0464369306858E-08
(PID.TID 0000.0001) %MON ke_max                       =   1.9385085519919E-02
(PID.TID 0000.0001) %MON ke_mean                      =   1.1288845145455E-05
(PID.TID 0000.0001) %MON ke_vol                       =   1.0416098804501E+14
(PID.TID 0000.0001) %MON vort_r_min                   =  -1.1776943321560E-04
(PID.TID 0000.0001) %MON vort_r_max                   =   1.1673795979929E-04
(PID.TID 0000.0001) %MON vort_a_mean                  =   6.9456055905738E-04
(PID.TID 0000.0001) %MON vort_a_sd                    =   8.3227823698058E-07
(PID.TID 0000.0001) %MON vort_p_mean                  =   7.0575608364114E-04
(PID.TID 0000.0001) %MON vort_p_sd                    =   1.5173802164193E-04
(PID.TID 0000.0001) %MON surfExpan_theta_mean         =  -8.2656696816661E-12
(PID.TID 0000.0001) %MON surfExpan_salt_mean          =  -1.7382817086545E-21
(PID.TID 0000.0001) // =======================================================
(PID.TID 0000.0001) // End MONITOR dynamic field statistics
(PID.TID 0000.0001) // =======================================================
(PID.TID 0000.0001) // =======================================================
(PID.TID 0000.0001) // Begin OBCS MONITOR field statistics
(PID.TID 0000.0001) // =======================================================
(PID.TID 0000.0001) %MON obc_S_vVel_max               =   2.7866667329186E-02
(PID.TID 0000.0001) %MON obc_S_vVel_min               =  -2.0921702156375E-04
(PID.TID 0000.0001) %MON obc_S_vVel_mean              =  -1.0881305917853E-20
(PID.TID 0000.0001) %MON obc_S_vVel_sd                =   1.2483022779336E-03
(PID.TID 0000.0001) %MON obc_S_vVel_Int               =  -5.2011728257639E-12
(PID.TID 0000.0001) // =======================================================
(PID.TID 0000.0001) // End OBCS MONITOR field statistics
(PID.TID 0000.0001) // =======================================================
 EXTERNAL_FIELDS_LOAD,       300 : iP,iLd,i0,i1=   30   31   30   31 ; Wght=  0.5000000000  0.5000000000
 cg2d: Sum(rhs),rhsMax =   5.32907051820075E-13  2.13578659742203E-02
 EXTERNAL_FIELDS_LOAD,       301 : iP,iLd,i0,i1=   30   31   30   31 ; Wght=  0.4000000000  0.6000000000
 cg2d: Sum(rhs),rhsMax =   3.85469434149854E-13  2.15539878945898E-02
 EXTERNAL_FIELDS_LOAD,       302 : iP,iLd,i0,i1=   30   31   30   31 ; Wght=  0.3000000000  0.7000000000
 cg2d: Sum(rhs),rhsMax =   3.55271367880050E-13  2.17110643379033E-02
 EXTERNAL_FIELDS_LOAD,       303 : iP,iLd,i0,i1=   30   31   30   31 ; Wght=  0.2000000000  0.8000000000
 cg2d: Sum(rhs),rhsMax =   5.66657831768680E-13  2.18281777174576E-02
 EXTERNAL_FIELDS_LOAD,       304 : iP,iLd,i0,i1=   30   31   30   31 ; Wght=  0.1000000000  0.9000000000
 cg2d: Sum(rhs),rhsMax =   7.21200876796502E-13  2.19044006414457E-02
 EXTERNAL_FIELDS_LOAD,       305 : iP,iLd,i0,i1=   30   31   31   32 ; Wght=  1.0000000000  0.0000000000
 EXTERNAL_FIELDS_LOAD, it=       305 : Reading new data, i0,i1=   31   32 (prev=   30   31 )
(PID.TID 0000.0001)  MDS_READ_FIELD: opening global file: ../input/merid_halfgauss2p5hr_240x180.bin
(PID.TID 0000.0001)  MDS_READ_FIELD: opening global file: ../input/merid_halfgauss2p5hr_240x180.bin
 cg2d: Sum(rhs),rhsMax =   3.74811293113453E-13  2.19388161172637E-02
 EXTERNAL_FIELDS_LOAD,       306 : iP,iLd,i0,i1=   31   32   31   32 ; Wght=  0.9000000000  0.1000000000
 cg2d: Sum(rhs),rhsMax =   3.32178728967847E-13  2.19305406512643E-02
 EXTERNAL_FIELDS_LOAD,       307 : iP,iLd,i0,i1=   31   32   31   32 ; Wght=  0.8000000000  0.2000000000
 cg2d: Sum(rhs),rhsMax =   6.96331881044898E-13  2.18787496434460E-02
 EXTERNAL_FIELDS_LOAD,       308 : iP,iLd,i0,i1=   31   32   31   32 ; Wght=  0.7000000000  0.3000000000
 cg2d: Sum(rhs),rhsMax =   4.67181848762266E-13  2.17827044398476E-02
 EXTERNAL_FIELDS_LOAD,       309 : iP,iLd,i0,i1=   31   32   31   32 ; Wght=  0.6000000000  0.4000000000
 cg2d: Sum(rhs),rhsMax =   8.52651282912120E-13  2.16417803854336E-02
 EXTERNAL_FIELDS_LOAD,       310 : iP,iLd,i0,i1=   31   32   31   32 ; Wght=  0.5000000000  0.5000000000
 cg2d: Sum(rhs),rhsMax =   5.89750470680883E-13  2.14554952174573E-02
 EXTERNAL_FIELDS_LOAD,       311 : iP,iLd,i0,i1=   31   32   31   32 ; Wght=  0.4000000000  0.6000000000
 cg2d: Sum(rhs),rhsMax =   4.08562073062058E-13  2.12235371469259E-02
 EXTERNAL_FIELDS_LOAD,       312 : iP,iLd,i0,i1=   31   32   31   32 ; Wght=  0.3000000000  0.7000000000
 cg2d: Sum(rhs),rhsMax =   6.18172180111287E-13  2.09457920011928E-02
 EXTERNAL_FIELDS_LOAD,       313 : iP,iLd,i0,i1=   31   32   31   32 ; Wght=  0.2000000000  0.8000000000
 cg2d: Sum(rhs),rhsMax =   1.06226138996135E-12  2.06223688324117E-02
 EXTERNAL_FIELDS_LOAD,       314 : iP,iLd,i0,i1=   31   32   31   32 ; Wght=  0.1000000000  0.9000000000
 cg2d: Sum(rhs),rhsMax =   5.18696197104873E-13  2.02536234392773E-02
 EXTERNAL_FIELDS_LOAD,       315 : iP,iLd,i0,i1=   31   32   32   33 ; Wght=  1.0000000000  0.0000000000
 EXTERNAL_FIELDS_LOAD, it=       315 : Reading new data, i0,i1=   32   33 (prev=   31   32 )
(PID.TID 0000.0001)  MDS_READ_FIELD: opening global file: ../input/merid_halfgauss2p5hr_240x180.bin
(PID.TID 0000.0001)  MDS_READ_FIELD: opening global file: ../input/merid_halfgauss2p5hr_240x180.bin
 cg2d: Sum(rhs),rhsMax =   7.28306304154103E-13  1.99267907628067E-02
 EXTERNAL_FIELDS_LOAD,       316 : iP,iLd,i0,i1=   32   33   32   33 ; Wght=  0.9000000000  0.1000000000
 cg2d: Sum(rhs),rhsMax =   4.54747350886464E-13  1.96070225128642E-02
 EXTERNAL_FIELDS_LOAD,       317 : iP,iLd,i0,i1=   32   33   32   33 ; Wght=  0.8000000000  0.2000000000
 cg2d: Sum(rhs),rhsMax =   7.24753590475302E-13  1.92348438265289E-02
 EXTERNAL_FIELDS_LOAD,       318 : iP,iLd,i0,i1=   32   33   32   33 ; Wght=  0.7000000000  0.3000000000
 cg2d: Sum(rhs),rhsMax =   8.41993141875719E-13  1.88974314245751E-02
 EXTERNAL_FIELDS_LOAD,       319 : iP,iLd,i0,i1=   32   33   32   33 ; Wght=  0.6000000000  0.4000000000
 cg2d: Sum(rhs),rhsMax =   6.75015598972095E-13  1.85782047670300E-02
(PID.TID 0000.0001)      cg2d_init_res =   7.10890181693403E-01
(PID.TID 0000.0001)      cg2d_iters(min,last) =      -1      32
(PID.TID 0000.0001)      cg2d_last_res =   8.27796240714366E-08
(PID.TID 0000.0001) // =======================================================
(PID.TID 0000.0001) // Begin MONITOR dynamic field statistics
(PID.TID 0000.0001) // =======================================================
(PID.TID 0000.0001) %MON time_tsnumber                =                   320
(PID.TID 0000.0001) %MON time_secondsf                =   1.9200000000000E+04
(PID.TID 0000.0001) %MON dynstat_eta_max              =   1.6765094879664E-02
(PID.TID 0000.0001) %MON dynstat_eta_min              =  -1.3462373422648E-02
(PID.TID 0000.0001) %MON dynstat_eta_mean             =  -3.9815799979287E-19
(PID.TID 0000.0001) %MON dynstat_eta_sd               =   2.4033110445921E-03
(PID.TID 0000.0001) %MON dynstat_eta_del2             =   6.3508005546325E-07
(PID.TID 0000.0001) %MON dynstat_uvel_max             =   1.6543109114276E-01
(PID.TID 0000.0001) %MON dynstat_uvel_min             =  -5.8101813612697E-02
(PID.TID 0000.0001) %MON dynstat_uvel_mean            =  -5.1758939733122E-05
(PID.TID 0000.0001) %MON dynstat_uvel_sd              =   3.6827602681675E-03
(PID.TID 0000.0001) %MON dynstat_uvel_del2            =   1.7318682785409E-06
(PID.TID 0000.0001) %MON dynstat_vvel_max             =   8.5732970718358E-02
(PID.TID 0000.0001) %MON dynstat_vvel_min             =  -1.2825673667346E-01
(PID.TID 0000.0001) %MON dynstat_vvel_mean            =  -2.1760067657843E-05
(PID.TID 0000.0001) %MON dynstat_vvel_sd              =   2.9739370408975E-03
(PID.TID 0000.0001) %MON dynstat_vvel_del2            =   1.7486869298280E-06
(PID.TID 0000.0001) %MON dynstat_wvel_max             =   3.1084546077944E-04
(PID.TID 0000.0001) %MON dynstat_wvel_min             =  -3.0692929593349E-04
(PID.TID 0000.0001) %MON dynstat_wvel_mean            =   1.9406975501115E-07
(PID.TID 0000.0001) %MON dynstat_wvel_sd              =   2.1323369966044E-06
(PID.TID 0000.0001) %MON dynstat_wvel_del2            =   8.9194830822401E-09
(PID.TID 0000.0001) %MON dynstat_theta_max            =   1.6580813835219E+01
(PID.TID 0000.0001) %MON dynstat_theta_min            =   4.1845810348659E+00
(PID.TID 0000.0001) %MON dynstat_theta_mean           =   8.3857339420986E+00
(PID.TID 0000.0001) %MON dynstat_theta_sd             =   3.8618124257617E+00
(PID.TID 0000.0001) %MON dynstat_theta_del2           =   6.1522962292682E-07
(PID.TID 0000.0001) %MON dynstat_salt_max             =   3.4476101453304E+01
(PID.TID 0000.0001) %MON dynstat_salt_min             =   3.3629622146112E+01
(PID.TID 0000.0001) %MON dynstat_salt_mean            =   3.4127681163268E+01
(PID.TID 0000.0001) %MON dynstat_salt_sd              =   2.8356840737812E-01
(PID.TID 0000.0001) %MON dynstat_salt_del2            =   1.9209147780908E-08
(PID.TID 0000.0001) %MON trAdv_CFL_u_max              =   5.0441322302269E-03
(PID.TID 0000.0001) %MON trAdv_CFL_v_max              =   5.3254119242871E-03
(PID.TID 0000.0001) %MON trAdv_CFL_w_max              =   7.4606187125323E-03
(PID.TID 0000.0001) %MON advcfl_uvel_max              =   4.9837398481489E-03
(PID.TID 0000.0001) %MON advcfl_vvel_max              =   3.2875103385199E-03
(PID.TID 0000.0001) %MON advcfl_wvel_max              =   6.9716849475036E-03
(PID.TID 0000.0001) %MON advcfl_W_hf_max              =   7.4074152567226E-03
(PID.TID 0000.0001) %MON pe_b_mean                    =   4.3262088583297E-08
(PID.TID 0000.0001) %MON ke_max                       =   1.7699845188260E-02
(PID.TID 0000.0001) %MON ke_mean                      =   1.1192253174027E-05
(PID.TID 0000.0001) %MON ke_vol                       =   1.0416098804501E+14
(PID.TID 0000.0001) %MON vort_r_min                   =  -9.9118066268065E-05
(PID.TID 0000.0001) %MON vort_r_max                   =   8.7840666902045E-05
(PID.TID 0000.0001) %MON vort_a_mean                  =   6.9456055905738E-04
(PID.TID 0000.0001) %MON vort_a_sd                    =   8.2754055153860E-07
(PID.TID 0000.0001) %MON vort_p_mean                  =   7.0575608364114E-04
(PID.TID 0000.0001) %MON vort_p_sd                    =   1.5173620055642E-04
(PID.TID 0000.0001) %MON surfExpan_theta_mean         =  -1.4455805624732E-11
(PID.TID 0000.0001) %MON surfExpan_salt_mean          =   1.6010489421818E-21
(PID.TID 0000.0001) // =======================================================
(PID.TID 0000.0001) // End MONITOR dynamic field statistics
(PID.TID 0000.0001) // =======================================================
(PID.TID 0000.0001) // =======================================================
(PID.TID 0000.0001) // Begin OBCS MONITOR field statistics
(PID.TID 0000.0001) // =======================================================
(PID.TID 0000.0001) %MON obc_S_vVel_max               =   1.6717579870735E-04
(PID.TID 0000.0001) %MON obc_S_vVel_min               =  -4.4914609928644E-02
(PID.TID 0000.0001) %MON obc_S_vVel_mean              =   2.0216633945737E-20
(PID.TID 0000.0001) %MON obc_S_vVel_sd                =   2.0099676726556E-03
(PID.TID 0000.0001) %MON obc_S_vVel_Int               =   9.6633812063374E-12
(PID.TID 0000.0001) // =======================================================
(PID.TID 0000.0001) // End OBCS MONITOR field statistics
(PID.TID 0000.0001) // =======================================================
 EXTERNAL_FIELDS_LOAD,       320 : iP,iLd,i0,i1=   32   33   32   33 ; Wght=  0.5000000000  0.5000000000
 cg2d: Sum(rhs),rhsMax =   7.56728013584507E-13  1.82031247090098E-02
 EXTERNAL_FIELDS_LOAD,       321 : iP,iLd,i0,i1=   32   33   32   33 ; Wght=  0.4000000000  0.6000000000
 cg2d: Sum(rhs),rhsMax =   4.15667500419659E-13  1.77738812354617E-02
 EXTERNAL_FIELDS_LOAD,       322 : iP,iLd,i0,i1=   32   33   32   33 ; Wght=  0.3000000000  0.7000000000
 cg2d: Sum(rhs),rhsMax =   1.04449782156735E-12  1.72927103503667E-02
 EXTERNAL_FIELDS_LOAD,       323 : iP,iLd,i0,i1=   32   33   32   33 ; Wght=  0.2000000000  0.8000000000
 cg2d: Sum(rhs),rhsMax =   1.63424829224823E-13  1.67623905814476E-02
 EXTERNAL_FIELDS_LOAD,       324 : iP,iLd,i0,i1=   32   33   32   33 ; Wght=  0.1000000000  0.9000000000
 cg2d: Sum(rhs),rhsMax =   8.56203996590921E-13  1.61862304174643E-02
 EXTERNAL_FIELDS_LOAD,       325 : iP,iLd,i0,i1=   32   33   33   34 ; Wght=  1.0000000000  0.0000000000
 EXTERNAL_FIELDS_LOAD, it=       325 : Reading new data, i0,i1=   33   34 (prev=   32   33 )
(PID.TID 0000.0001)  MDS_READ_FIELD: opening global file: ../input/merid_halfgauss2p5hr_240x180.bin
(PID.TID 0000.0001)  MDS_READ_FIELD: opening global file: ../input/merid_halfgauss2p5hr_240x180.bin
 cg2d: Sum(rhs),rhsMax =   8.81072992342524E-13  1.56817151360941E-02
 EXTERNAL_FIELDS_LOAD,       326 : iP,iLd,i0,i1=   33   34   33   34 ; Wght=  0.9000000000  0.1000000000
 cg2d: Sum(rhs),rhsMax =   3.90798504668055E-13  1.51642556922462E-02
 EXTERNAL_FIELDS_LOAD,       327 : iP,iLd,i0,i1=   33   34   33   34 ; Wght=  0.8000000000  0.2000000000
 cg2d: Sum(rhs),rhsMax =   1.09423581307055E-12  1.48248185060745E-02
 EXTERNAL_FIELDS_LOAD,       328 : iP,iLd,i0,i1=   33   34   33   34 ; Wght=  0.7000000000  0.3000000000
 cg2d: Sum(rhs),rhsMax =   4.90274487674469E-13  1.50684516227435E-02
 EXTERNAL_FIELDS_LOAD,       329 : iP,iLd,i0,i1=   33   34   33   34 ; Wght=  0.6000000000  0.4000000000
 cg2d: Sum(rhs),rhsMax =   1.13686837721616E-12  1.52687290808617E-02
 EXTERNAL_FIELDS_LOAD,       330 : iP,iLd,i0,i1=   33   34   33   34 ; Wght=  0.5000000000  0.5000000000
 cg2d: Sum(rhs),rhsMax =   9.37916411203332E-13  1.54237665941800E-02
 EXTERNAL_FIELDS_LOAD,       331 : iP,iLd,i0,i1=   33   34   33   34 ; Wght=  0.4000000000  0.6000000000
 cg2d: Sum(rhs),rhsMax =   6.32383034826489E-13  1.55319674679804E-02
 EXTERNAL_FIELDS_LOAD,       332 : iP,iLd,i0,i1=   33   34   33   34 ; Wght=  0.3000000000  0.7000000000
 cg2d: Sum(rhs),rhsMax =   8.02913291408913E-13  1.55920326766096E-02
 EXTERNAL_FIELDS_LOAD,       333 : iP,iLd,i0,i1=   33   34   33   34 ; Wght=  0.2000000000  0.8000000000
 cg2d: Sum(rhs),rhsMax =   2.41584530158434E-13  1.56029671885731E-02
 EXTERNAL_FIELDS_LOAD,       334 : iP,iLd,i0,i1=   33   34   33   34 ; Wght=  0.1000000000  0.9000000000
 cg2d: Sum(rhs),rhsMax =   1.03383968053095E-12  1.55640826395053E-02
 EXTERNAL_FIELDS_LOAD,       335 : iP,iLd,i0,i1=   33   34   34   35 ; Wght=  1.0000000000  0.0000000000
 EXTERNAL_FIELDS_LOAD, it=       335 : Reading new data, i0,i1=   34   35 (prev=   33   34 )
(PID.TID 0000.0001)  MDS_READ_FIELD: opening global file: ../input/merid_halfgauss2p5hr_240x180.bin
(PID.TID 0000.0001)  MDS_READ_FIELD: opening global file: ../input/merid_halfgauss2p5hr_240x180.bin
 cg2d: Sum(rhs),rhsMax =   6.92779167366098E-13  1.54903882473946E-02
 EXTERNAL_FIELDS_LOAD,       336 : iP,iLd,i0,i1=   34   35   34   35 ; Wght=  0.9000000000  0.1000000000
 cg2d: Sum(rhs),rhsMax =   1.07647224467655E-12  1.54101863904468E-02
 EXTERNAL_FIELDS_LOAD,       337 : iP,iLd,i0,i1=   34   35   34   35 ; Wght=  0.8000000000  0.2000000000
 cg2d: Sum(rhs),rhsMax =   8.20676859802916E-13  1.52843964830385E-02
 EXTERNAL_FIELDS_LOAD,       338 : iP,iLd,i0,i1=   34   35   34   35 ; Wght=  0.7000000000  0.3000000000
 cg2d: Sum(rhs),rhsMax =   3.05533376376843E-13  1.51134297752625E-02
 EXTERNAL_FIELDS_LOAD,       339 : iP,iLd,i0,i1=   34   35   34   35 ; Wght=  0.6000000000  0.4000000000
 cg2d: Sum(rhs),rhsMax =   8.77520278663724E-13  1.48979226057600E-02
(PID.TID 0000.0001)      cg2d_init_res =   7.38528298595110E-01
(PID.TID 0000.0001)      cg2d_iters(min,last) =      -1      32
(PID.TID 0000.0001)      cg2d_last_res =   6.84102088424279E-08
(PID.TID 0000.0001) // =======================================================
(PID.TID 0000.0001) // Begin MONITOR dynamic field statistics
(PID.TID 0000.0001) // =======================================================
(PID.TID 0000.0001) %MON time_tsnumber                =                   340
(PID.TID 0000.0001) %MON time_secondsf                =   2.0400000000000E+04
(PID.TID 0000.0001) %MON dynstat_eta_max              =   1.2802203520565E-02
(PID.TID 0000.0001) %MON dynstat_eta_min              =  -1.3470668891130E-02
(PID.TID 0000.0001) %MON dynstat_eta_mean             =  -3.6741786010298E-19
(PID.TID 0000.0001) %MON dynstat_eta_sd               =   2.4120882955869E-03
(PID.TID 0000.0001) %MON dynstat_eta_del2             =   5.8221150118396E-07
(PID.TID 0000.0001) %MON dynstat_uvel_max             =   1.0215360318701E-01
(PID.TID 0000.0001) %MON dynstat_uvel_min             =  -4.9572046885532E-02
(PID.TID 0000.0001) %MON dynstat_uvel_mean            =  -3.7013428054027E-05
(PID.TID 0000.0001) %MON dynstat_uvel_sd              =   4.6855650717352E-04
(PID.TID 0000.0001) %MON dynstat_uvel_del2            =   1.6034296973132E-06
(PID.TID 0000.0001) %MON dynstat_vvel_max             =   5.5643145261687E-02
(PID.TID 0000.0001) %MON dynstat_vvel_min             =  -1.7061664339686E-01
(PID.TID 0000.0001) %MON dynstat_vvel_mean            =   2.7900283895350E-05
(PID.TID 0000.0001) %MON dynstat_vvel_sd              =   4.6988580200603E-03
(PID.TID 0000.0001) %MON dynstat_vvel_del2            =   1.6166002280779E-06
(PID.TID 0000.0001) %MON dynstat_wvel_max             =   2.9978327814340E-04
(PID.TID 0000.0001) %MON dynstat_wvel_min             =  -2.5454265851569E-04
(PID.TID 0000.0001) %MON dynstat_wvel_mean            =   3.7537651438768E-07
(PID.TID 0000.0001) %MON dynstat_wvel_sd              =   2.3987006272952E-06
(PID.TID 0000.0001) %MON dynstat_wvel_del2            =   8.4664383646347E-09
(PID.TID 0000.0001) %MON dynstat_theta_max            =   1.6580812822882E+01
(PID.TID 0000.0001) %MON dynstat_theta_min            =   4.1845772924124E+00
(PID.TID 0000.0001) %MON dynstat_theta_mean           =   8.3857274881769E+00
(PID.TID 0000.0001) %MON dynstat_theta_sd             =   3.8618057158945E+00
(PID.TID 0000.0001) %MON dynstat_theta_del2           =   6.2671613842451E-07
(PID.TID 0000.0001) %MON dynstat_salt_max             =   3.4476101834751E+01
(PID.TID 0000.0001) %MON dynstat_salt_min             =   3.3629641493828E+01
(PID.TID 0000.0001) %MON dynstat_salt_mean            =   3.4127681556252E+01
(PID.TID 0000.0001) %MON dynstat_salt_sd              =   2.8356811230839E-01
(PID.TID 0000.0001) %MON dynstat_salt_del2            =   1.9812989239199E-08
(PID.TID 0000.0001) %MON trAdv_CFL_u_max              =   3.1942997878716E-03
(PID.TID 0000.0001) %MON trAdv_CFL_v_max              =   4.5204139444572E-03
(PID.TID 0000.0001) %MON trAdv_CFL_w_max              =   6.4141763546997E-03
(PID.TID 0000.0001) %MON advcfl_uvel_max              =   3.0774564763992E-03
(PID.TID 0000.0001) %MON advcfl_vvel_max              =   4.3732905860439E-03
(PID.TID 0000.0001) %MON advcfl_wvel_max              =   6.3086010638827E-03
(PID.TID 0000.0001) %MON advcfl_W_hf_max              =   6.7028886303753E-03
(PID.TID 0000.0001) %MON pe_b_mean                    =   4.3578664843395E-08
(PID.TID 0000.0001) %MON ke_max                       =   1.1839778573234E-02
(PID.TID 0000.0001) %MON ke_mean                      =   1.1108823084969E-05
(PID.TID 0000.0001) %MON ke_vol                       =   1.0416098804501E+14
(PID.TID 0000.0001) %MON vort_r_min                   =  -8.7686890846096E-05
(PID.TID 0000.0001) %MON vort_r_max                   =   6.9712542830758E-05
(PID.TID 0000.0001) %MON vort_a_mean                  =   6.9456055905738E-04
(PID.TID 0000.0001) %MON vort_a_sd                    =   8.0977065642377E-07
(PID.TID 0000.0001) %MON vort_p_mean                  =   7.0575608364114E-04
(PID.TID 0000.0001) %MON vort_p_sd                    =   1.5174151970188E-04
(PID.TID 0000.0001) %MON surfExpan_theta_mean         =   2.6179408516227E-12
(PID.TID 0000.0001) %MON surfExpan_salt_mean          =  -6.7472776849091E-21
(PID.TID 0000.0001) // =======================================================
(PID.TID 0000.0001) // End MONITOR dynamic field statistics
(PID.TID 0000.0001) // =======================================================
(PID.TID 0000.0001) // =======================================================
(PID.TID 0000.0001) // Begin OBCS MONITOR field statistics
(PID.TID 0000.0001) // =======================================================
(PID.TID 0000.0001) %MON obc_S_vVel_max               =   3.3211733063801E-04
(PID.TID 0000.0001) %MON obc_S_vVel_min               =  -8.7949763669437E-02
(PID.TID 0000.0001) %MON obc_S_vVel_mean              =  -5.4822754405794E-20
(PID.TID 0000.0001) %MON obc_S_vVel_sd                =   3.9370059024145E-03
(PID.TID 0000.0001) %MON obc_S_vVel_Int               =  -2.6204816094832E-11
(PID.TID 0000.0001) // =======================================================
(PID.TID 0000.0001) // End OBCS MONITOR field statistics
(PID.TID 0000.0001) // =======================================================
 EXTERNAL_FIELDS_LOAD,       340 : iP,iLd,i0,i1=   34   35   34   35 ; Wght=  0.5000000000  0.5000000000
 cg2d: Sum(rhs),rhsMax =   1.06581410364015E-13  1.46387219995671E-02
 EXTERNAL_FIELDS_LOAD,       341 : iP,iLd,i0,i1=   34   35   34   35 ; Wght=  0.4000000000  0.6000000000
 cg2d: Sum(rhs),rhsMax =   7.88702436693711E-13  1.43368698435834E-02
 EXTERNAL_FIELDS_LOAD,       342 : iP,iLd,i0,i1=   34   35   34   35 ; Wght=  0.3000000000  0.7000000000
 cg2d: Sum(rhs),rhsMax =   8.45545855554519E-13  1.39935859639201E-02
 EXTERNAL_FIELDS_LOAD,       343 : iP,iLd,i0,i1=   34   35   34   35 ; Wght=  0.2000000000  0.8000000000
 cg2d: Sum(rhs),rhsMax =   7.92255150372512E-13  1.36692344725675E-02
 EXTERNAL_FIELDS_LOAD,       344 : iP,iLd,i0,i1=   34   35   34   35 ; Wght=  0.1000000000  0.9000000000
 cg2d: Sum(rhs),rhsMax =   1.29318777908338E-12  1.35110245377057E-02
 EXTERNAL_FIELDS_LOAD,       345 : iP,iLd,i0,i1=   34   35   35   36 ; Wght=  1.0000000000  0.0000000000
 EXTERNAL_FIELDS_LOAD, it=       345 : Reading new data, i0,i1=   35   36 (prev=   34   35 )
(PID.TID 0000.0001)  MDS_READ_FIELD: opening global file: ../input/merid_halfgauss2p5hr_240x180.bin
(PID.TID 0000.0001)  MDS_READ_FIELD: opening global file: ../input/merid_halfgauss2p5hr_240x180.bin
 cg2d: Sum(rhs),rhsMax =   7.49622586226906E-13  1.33440500980023E-02
 EXTERNAL_FIELDS_LOAD,       346 : iP,iLd,i0,i1=   35   36   35   36 ; Wght=  0.9000000000  0.1000000000
 cg2d: Sum(rhs),rhsMax =   3.37507799486048E-13  1.31635884384404E-02
 EXTERNAL_FIELDS_LOAD,       347 : iP,iLd,i0,i1=   35   36   35   36 ; Wght=  0.8000000000  0.2000000000
 cg2d: Sum(rhs),rhsMax =   9.37916411203332E-13  1.31291193057597E-02
 EXTERNAL_FIELDS_LOAD,       348 : iP,iLd,i0,i1=   35   36   35   36 ; Wght=  0.7000000000  0.3000000000
 cg2d: Sum(rhs),rhsMax =   2.23820961764432E-13  1.34628336239998E-02
 EXTERNAL_FIELDS_LOAD,       349 : iP,iLd,i0,i1=   35   36   35   36 ; Wght=  0.6000000000  0.4000000000
 cg2d: Sum(rhs),rhsMax =   7.14095449438901E-13  1.37908981525216E-02
 EXTERNAL_FIELDS_LOAD,       350 : iP,iLd,i0,i1=   35   36   35   36 ; Wght=  0.5000000000  0.5000000000
 cg2d: Sum(rhs),rhsMax =   5.86197757002083E-13  1.41122056834071E-02
 EXTERNAL_FIELDS_LOAD,       351 : iP,iLd,i0,i1=   35   36   35   36 ; Wght=  0.4000000000  0.6000000000
 cg2d: Sum(rhs),rhsMax =   3.83693077310454E-13  1.44256248072333E-02
 EXTERNAL_FIELDS_LOAD,       352 : iP,iLd,i0,i1=   35   36   35   36 ; Wght=  0.3000000000  0.7000000000
 cg2d: Sum(rhs),rhsMax =   4.28101998295460E-13  1.47300077922926E-02
 EXTERNAL_FIELDS_LOAD,       353 : iP,iLd,i0,i1=   35   36   35   36 ; Wght=  0.2000000000  0.8000000000
 cg2d: Sum(rhs),rhsMax =   8.56203996590921E-13  1.50241985810520E-02
 EXTERNAL_FIELDS_LOAD,       354 : iP,iLd,i0,i1=   35   36   35   36 ; Wght=  0.1000000000  0.9000000000
 cg2d: Sum(rhs),rhsMax =   8.01136934569513E-13  1.53070408350852E-02
 EXTERNAL_FIELDS_LOAD,       355 : iP,iLd,i0,i1=   35   36   36   37 ; Wght=  1.0000000000  0.0000000000
 EXTERNAL_FIELDS_LOAD, it=       355 : Reading new data, i0,i1=   36   37 (prev=   35   36 )
(PID.TID 0000.0001)  MDS_READ_FIELD: opening global file: ../input/merid_halfgauss2p5hr_240x180.bin
(PID.TID 0000.0001)  MDS_READ_FIELD: opening global file: ../input/merid_halfgauss2p5hr_240x180.bin
 cg2d: Sum(rhs),rhsMax =   4.49418280368263E-13  1.57656946184189E-02
 EXTERNAL_FIELDS_LOAD,       356 : iP,iLd,i0,i1=   36   37   36   37 ; Wght=  0.9000000000  0.1000000000
 cg2d: Sum(rhs),rhsMax =   5.49782441794378E-13  1.64434648723136E-02
 EXTERNAL_FIELDS_LOAD,       357 : iP,iLd,i0,i1=   36   37   36   37 ; Wght=  0.8000000000  0.2000000000
 cg2d: Sum(rhs),rhsMax =   6.21724893790088E-13  1.71020301877515E-02
 EXTERNAL_FIELDS_LOAD,       358 : iP,iLd,i0,i1=   36   37   36   37 ; Wght=  0.7000000000  0.3000000000
 cg2d: Sum(rhs),rhsMax =   6.44817532702291E-13  1.77393328234784E-02
 EXTERNAL_FIELDS_LOAD,       359 : iP,iLd,i0,i1=   36   37   36   37 ; Wght=  0.6000000000  0.4000000000
 cg2d: Sum(rhs),rhsMax =   5.50892664819003E-13  1.83533324106125E-02
(PID.TID 0000.0001)      cg2d_init_res =   9.18883222501659E-01
(PID.TID 0000.0001)      cg2d_iters(min,last) =      -1      33
(PID.TID 0000.0001)      cg2d_last_res =   6.07978958731562E-08
(PID.TID 0000.0001) // =======================================================
(PID.TID 0000.0001) // Begin MONITOR dynamic field statistics
(PID.TID 0000.0001) // =======================================================
(PID.TID 0000.0001) %MON time_tsnumber                =                   360
(PID.TID 0000.0001) %MON time_secondsf                =   2.1600000000000E+04
(PID.TID 0000.0001) %MON dynstat_eta_max              =   1.6621816983731E-02
(PID.TID 0000.0001) %MON dynstat_eta_min              =  -9.9306134127413E-03
(PID.TID 0000.0001) %MON dynstat_eta_mean             =  -3.8809426358487E-19
(PID.TID 0000.0001) %MON dynstat_eta_sd               =   1.9187928142887E-03
(PID.TID 0000.0001) %MON dynstat_eta_del2             =   5.0344717874041E-07
(PID.TID 0000.0001) %MON dynstat_uvel_max             =   3.7538503931106E-02
(PID.TID 0000.0001) %MON dynstat_uvel_min             =  -1.2714092581333E-01
(PID.TID 0000.0001) %MON dynstat_uvel_mean            =   6.9214366116552E-06
(PID.TID 0000.0001) %MON dynstat_uvel_sd              =   3.2894125681417E-03
(PID.TID 0000.0001) %MON dynstat_uvel_del2            =   1.4817204598996E-06
(PID.TID 0000.0001) %MON dynstat_vvel_max             =   5.4381847748355E-02
(PID.TID 0000.0001) %MON dynstat_vvel_min             =  -1.4931375856737E-01
(PID.TID 0000.0001) %MON dynstat_vvel_mean            =   4.3803451888213E-05
(PID.TID 0000.0001) %MON dynstat_vvel_sd              =   3.3652523722119E-03
(PID.TID 0000.0001) %MON dynstat_vvel_del2            =   1.4966479590052E-06
(PID.TID 0000.0001) %MON dynstat_wvel_max             =   2.5720512201301E-04
(PID.TID 0000.0001) %MON dynstat_wvel_min             =  -2.1528480135077E-04
(PID.TID 0000.0001) %MON dynstat_wvel_mean            =   3.1097945581699E-07
(PID.TID 0000.0001) %MON dynstat_wvel_sd              =   2.4141082345408E-06
(PID.TID 0000.0001) %MON dynstat_wvel_del2            =   7.9852977901260E-09
(PID.TID 0000.0001) %MON dynstat_theta_max            =   1.6580773233427E+01
(PID.TID 0000.0001) %MON dynstat_theta_min            =   4.1845657028586E+00
(PID.TID 0000.0001) %MON dynstat_theta_mean           =   8.3857198243439E+00
(PID.TID 0000.0001) %MON dynstat_theta_sd             =   3.8617980854047E+00
(PID.TID 0000.0001) %MON dynstat_theta_del2           =   6.3844192706584E-07
(PID.TID 0000.0001) %MON dynstat_salt_max             =   3.4476103016011E+01
(PID.TID 0000.0001) %MON dynstat_salt_min             =   3.3629684437514E+01
(PID.TID 0000.0001) %MON dynstat_salt_mean            =   3.4127682024480E+01
(PID.TID 0000.0001) %MON dynstat_salt_sd              =   2.8356777996902E-01
(PID.TID 0000.0001) %MON dynstat_salt_del2            =   2.0895536890029E-08
(PID.TID 0000.0001) %MON trAdv_CFL_u_max              =   3.7346971780698E-03
(PID.TID 0000.0001) %MON trAdv_CFL_v_max              =   3.8913282940377E-03
(PID.TID 0000.0001) %MON trAdv_CFL_w_max              =   5.4307684585801E-03
(PID.TID 0000.0001) %MON advcfl_uvel_max              =   3.8302189384680E-03
(PID.TID 0000.0001) %MON advcfl_vvel_max              =   3.8272494506333E-03
(PID.TID 0000.0001) %MON advcfl_wvel_max              =   5.4970093994400E-03
(PID.TID 0000.0001) %MON advcfl_W_hf_max              =   5.8405724869051E-03
(PID.TID 0000.0001) %MON pe_b_mean                    =   2.7576788255339E-08
(PID.TID 0000.0001) %MON ke_max                       =   1.3358274196418E-02
(PID.TID 0000.0001) %MON ke_mean                      =   1.1043401156515E-05
(PID.TID 0000.0001) %MON ke_vol                       =   1.0416098804501E+14
(PID.TID 0000.0001) %MON vort_r_min                   =  -7.7331952913264E-05
(PID.TID 0000.0001) %MON vort_r_max                   =   5.5288840533737E-05
(PID.TID 0000.0001) %MON vort_a_mean                  =   6.9456055905738E-04
(PID.TID 0000.0001) %MON vort_a_sd                    =   8.1154500989959E-07
(PID.TID 0000.0001) %MON vort_p_mean                  =   7.0575608364114E-04
(PID.TID 0000.0001) %MON vort_p_sd                    =   1.5174944524209E-04
(PID.TID 0000.0001) %MON surfExpan_theta_mean         =   1.7958524234282E-11
(PID.TID 0000.0001) %MON surfExpan_salt_mean          =   9.1488510981818E-23
(PID.TID 0000.0001) // =======================================================
(PID.TID 0000.0001) // End MONITOR dynamic field statistics
(PID.TID 0000.0001) // =======================================================
(PID.TID 0000.0001) // =======================================================
(PID.TID 0000.0001) // Begin OBCS MONITOR field statistics
(PID.TID 0000.0001) // =======================================================
(PID.TID 0000.0001) %MON obc_S_vVel_max               =   3.4155468714779E-04
(PID.TID 0000.0001) %MON obc_S_vVel_min               =  -7.2842611407764E-02
(PID.TID 0000.0001) %MON obc_S_vVel_mean              =   3.9719739634567E-20
(PID.TID 0000.0001) %MON obc_S_vVel_sd                =   3.2621192156151E-03
(PID.TID 0000.0001) %MON obc_S_vVel_Int               =   1.8985701899510E-11
(PID.TID 0000.0001) // =======================================================
(PID.TID 0000.0001) // End OBCS MONITOR field statistics
(PID.TID 0000.0001) // =======================================================
 EXTERNAL_FIELDS_LOAD,       360 : iP,iLd,i0,i1=   36   37   36   37 ; Wght=  0.5000000000  0.5000000000
 cg2d: Sum(rhs),rhsMax =   5.97966121063109E-13  1.89420070055326E-02
 EXTERNAL_FIELDS_LOAD,       361 : iP,iLd,i0,i1=   36   37   36   37 ; Wght=  0.4000000000  0.6000000000
 cg2d: Sum(rhs),rhsMax =   4.15667500419659E-13  1.95033560099216E-02
 EXTERNAL_FIELDS_LOAD,       362 : iP,iLd,i0,i1=   36   37   36   37 ; Wght=  0.3000000000  0.7000000000
 cg2d: Sum(rhs),rhsMax =   4.63629135083465E-13  2.00354051108787E-02
 EXTERNAL_FIELDS_LOAD,       363 : iP,iLd,i0,i1=   36   37   36   37 ; Wght=  0.2000000000  0.8000000000
 cg2d: Sum(rhs),rhsMax =   5.76427794385381E-13  2.05362133293188E-02
 EXTERNAL_FIELDS_LOAD,       364 : iP,iLd,i0,i1=   36   37   36   37 ; Wght=  0.1000000000  0.9000000000
 cg2d: Sum(rhs),rhsMax =   5.82645043323282E-13  2.10644166308385E-02
 EXTERNAL_FIELDS_LOAD,       365 : iP,iLd,i0,i1=   36   37   37   38 ; Wght=  1.0000000000  0.0000000000
 EXTERNAL_FIELDS_LOAD, it=       365 : Reading new data, i0,i1=   37   38 (prev=   36   37 )
(PID.TID 0000.0001)  MDS_READ_FIELD: opening global file: ../input/merid_halfgauss2p5hr_240x180.bin
(PID.TID 0000.0001)  MDS_READ_FIELD: opening global file: ../input/merid_halfgauss2p5hr_240x180.bin
 cg2d: Sum(rhs),rhsMax =   7.65609797781508E-13  2.16142744023246E-02
 EXTERNAL_FIELDS_LOAD,       366 : iP,iLd,i0,i1=   37   38   37   38 ; Wght=  0.9000000000  0.1000000000
 cg2d: Sum(rhs),rhsMax =   6.37712105344690E-13  2.21238356752321E-02
 EXTERNAL_FIELDS_LOAD,       367 : iP,iLd,i0,i1=   37   38   37   38 ; Wght=  0.8000000000  0.2000000000
 cg2d: Sum(rhs),rhsMax =   5.18696197104873E-13  2.25916071562661E-02
 EXTERNAL_FIELDS_LOAD,       368 : iP,iLd,i0,i1=   37   38   37   38 ; Wght=  0.7000000000  0.3000000000
 cg2d: Sum(rhs),rhsMax =   4.88498130835069E-13  2.30162863141465E-02
 EXTERNAL_FIELDS_LOAD,       369 : iP,iLd,i0,i1=   37   38   37   38 ; Wght=  0.6000000000  0.4000000000
 cg2d: Sum(rhs),rhsMax =   4.93827201353270E-13  2.33967590715929E-02
 EXTERNAL_FIELDS_LOAD,       370 : iP,iLd,i0,i1=   37   38   37   38 ; Wght=  0.5000000000  0.5000000000
 cg2d: Sum(rhs),rhsMax =   4.38760139331862E-13  2.37877095356204E-02
 EXTERNAL_FIELDS_LOAD,       371 : iP,iLd,i0,i1=   37   38   37   38 ; Wght=  0.4000000000  0.6000000000
 cg2d: Sum(rhs),rhsMax =   5.59552404411079E-13  2.42148333054943E-02
 EXTERNAL_FIELDS_LOAD,       372 : iP,iLd,i0,i1=   37   38   37   38 ; Wght=  0.3000000000  0.7000000000
 cg2d: Sum(rhs),rhsMax =   5.47117906535277E-13  2.45985134047283E-02
 EXTERNAL_FIELDS_LOAD,       373 : iP,iLd,i0,i1=   37   38   37   38 ; Wght=  0.2000000000  0.8000000000
 cg2d: Sum(rhs),rhsMax =   4.63629135083465E-13  2.49374864712327E-02
 EXTERNAL_FIELDS_LOAD,       374 : iP,iLd,i0,i1=   37   38   37   38 ; Wght=  0.1000000000  0.9000000000
 cg2d: Sum(rhs),rhsMax =   4.93827201353270E-13  2.52306262961459E-02
 EXTERNAL_FIELDS_LOAD,       375 : iP,iLd,i0,i1=   37   38   38   39 ; Wght=  1.0000000000  0.0000000000
 EXTERNAL_FIELDS_LOAD, it=       375 : Reading new data, i0,i1=   38   39 (prev=   37   38 )
(PID.TID 0000.0001)  MDS_READ_FIELD: opening global file: ../input/merid_halfgauss2p5hr_240x180.bin
(PID.TID 0000.0001)  MDS_READ_FIELD: opening global file: ../input/merid_halfgauss2p5hr_240x180.bin
 cg2d: Sum(rhs),rhsMax =   3.92574861507455E-13  2.54769504054881E-02
 EXTERNAL_FIELDS_LOAD,       376 : iP,iLd,i0,i1=   38   39   38   39 ; Wght=  0.9000000000  0.1000000000
 cg2d: Sum(rhs),rhsMax =   5.04485342389671E-13  2.56756265303971E-02
 EXTERNAL_FIELDS_LOAD,       377 : iP,iLd,i0,i1=   38   39   38   39 ; Wght=  0.8000000000  0.2000000000
 cg2d: Sum(rhs),rhsMax =   3.41060513164848E-13  2.58561364183398E-02
 EXTERNAL_FIELDS_LOAD,       378 : iP,iLd,i0,i1=   38   39   38   39 ; Wght=  0.7000000000  0.3000000000
 cg2d: Sum(rhs),rhsMax =   6.28830321147689E-13  2.61032308157665E-02
 EXTERNAL_FIELDS_LOAD,       379 : iP,iLd,i0,i1=   38   39   38   39 ; Wght=  0.6000000000  0.4000000000
 cg2d: Sum(rhs),rhsMax =   6.71462885293295E-13  2.63005484500799E-02
(PID.TID 0000.0001)      cg2d_init_res =   5.80047085925561E-01
(PID.TID 0000.0001)      cg2d_iters(min,last) =      -1      31
(PID.TID 0000.0001)      cg2d_last_res =   8.64400852917462E-08
(PID.TID 0000.0001) // =======================================================
(PID.TID 0000.0001) // Begin MONITOR dynamic field statistics
(PID.TID 0000.0001) // =======================================================
(PID.TID 0000.0001) %MON time_tsnumber                =                   380
(PID.TID 0000.0001) %MON time_secondsf                =   2.2800000000000E+04
(PID.TID 0000.0001) %MON dynstat_eta_max              =   2.3792852588908E-02
(PID.TID 0000.0001) %MON dynstat_eta_min              =  -7.8694051571728E-03
(PID.TID 0000.0001) %MON dynstat_eta_mean             =  -2.6787836015476E-19
(PID.TID 0000.0001) %MON dynstat_eta_sd               =   2.0168091928547E-03
(PID.TID 0000.0001) %MON dynstat_eta_del2             =   5.0165345458636E-07
(PID.TID 0000.0001) %MON dynstat_uvel_max             =   3.5094084235422E-02
(PID.TID 0000.0001) %MON dynstat_uvel_min             =  -1.6088550599257E-01
(PID.TID 0000.0001) %MON dynstat_uvel_mean            =   2.7676151508512E-05
(PID.TID 0000.0001) %MON dynstat_uvel_sd              =   4.6615783458603E-03
(PID.TID 0000.0001) %MON dynstat_uvel_del2            =   1.4115692275714E-06
(PID.TID 0000.0001) %MON dynstat_vvel_max             =   5.2627821921601E-02
(PID.TID 0000.0001) %MON dynstat_vvel_min             =  -7.8175068976768E-02
(PID.TID 0000.0001) %MON dynstat_vvel_mean            =  -2.6071435431245E-06
(PID.TID 0000.0001) %MON dynstat_vvel_sd              =   4.4504242651057E-04
(PID.TID 0000.0001) %MON dynstat_vvel_del2            =   1.3647476826467E-06
(PID.TID 0000.0001) %MON dynstat_wvel_max             =   1.9319992889285E-04
(PID.TID 0000.0001) %MON dynstat_wvel_min             =  -2.1894652258219E-04
(PID.TID 0000.0001) %MON dynstat_wvel_mean            =   4.1106302669877E-08
(PID.TID 0000.0001) %MON dynstat_wvel_sd              =   2.1327970592690E-06
(PID.TID 0000.0001) %MON dynstat_wvel_del2            =   7.6735718754666E-09
(PID.TID 0000.0001) %MON dynstat_theta_max            =   1.6580669401649E+01
(PID.TID 0000.0001) %MON dynstat_theta_min            =   4.1845556208010E+00
(PID.TID 0000.0001) %MON dynstat_theta_mean           =   8.3857159806234E+00
(PID.TID 0000.0001) %MON dynstat_theta_sd             =   3.8617935685289E+00
(PID.TID 0000.0001) %MON dynstat_theta_del2           =   6.4800722506746E-07
(PID.TID 0000.0001) %MON dynstat_salt_max             =   3.4476104043621E+01
(PID.TID 0000.0001) %MON dynstat_salt_min             =   3.3629746556596E+01
(PID.TID 0000.0001) %MON dynstat_salt_mean            =   3.4127682260751E+01
(PID.TID 0000.0001) %MON dynstat_salt_sd              =   2.8356758050855E-01
(PID.TID 0000.0001) %MON dynstat_salt_del2            =   2.1940397849069E-08
(PID.TID 0000.0001) %MON trAdv_CFL_u_max              =   4.8422082775172E-03
(PID.TID 0000.0001) %MON trAdv_CFL_v_max              =   2.8975435851254E-03
(PID.TID 0000.0001) %MON trAdv_CFL_w_max              =   4.6615755034871E-03
(PID.TID 0000.0001) %MON advcfl_uvel_max              =   4.8468005721659E-03
(PID.TID 0000.0001) %MON advcfl_vvel_max              =   2.0038038869643E-03
(PID.TID 0000.0001) %MON advcfl_wvel_max              =   4.4068314435201E-03
(PID.TID 0000.0001) %MON advcfl_W_hf_max              =   4.6822584087401E-03
(PID.TID 0000.0001) %MON pe_b_mean                    =   3.0466119563559E-08
(PID.TID 0000.0001) %MON ke_max                       =   1.4721641001284E-02
(PID.TID 0000.0001) %MON ke_mean                      =   1.0960891212489E-05
(PID.TID 0000.0001) %MON ke_vol                       =   1.0416098804501E+14
(PID.TID 0000.0001) %MON vort_r_min                   =  -6.6972960230926E-05
(PID.TID 0000.0001) %MON vort_r_max                   =   4.6847915942154E-05
(PID.TID 0000.0001) %MON vort_a_mean                  =   6.9456055905738E-04
(PID.TID 0000.0001) %MON vort_a_sd                    =   8.2185699427159E-07
(PID.TID 0000.0001) %MON vort_p_mean                  =   7.0575608364114E-04
(PID.TID 0000.0001) %MON vort_p_sd                    =   1.5175525223450E-04
(PID.TID 0000.0001) %MON surfExpan_theta_mean         =   7.3035630134482E-12
(PID.TID 0000.0001) %MON surfExpan_salt_mean          =   7.7765234334545E-22
(PID.TID 0000.0001) // =======================================================
(PID.TID 0000.0001) // End MONITOR dynamic field statistics
(PID.TID 0000.0001) // =======================================================
(PID.TID 0000.0001) // =======================================================
(PID.TID 0000.0001) // Begin OBCS MONITOR field statistics
(PID.TID 0000.0001) // =======================================================
(PID.TID 0000.0001) %MON obc_S_vVel_max               =   1.1991338091874E-04
(PID.TID 0000.0001) %MON obc_S_vVel_min               =  -9.6039286742567E-03
(PID.TID 0000.0001) %MON obc_S_vVel_mean              =  -1.0465081101323E-20
(PID.TID 0000.0001) %MON obc_S_vVel_sd                =   4.3194091245921E-04
(PID.TID 0000.0001) %MON obc_S_vVel_Int               =  -5.0022208597511E-12
(PID.TID 0000.0001) // =======================================================
(PID.TID 0000.0001) // End OBCS MONITOR field statistics
(PID.TID 0000.0001) // =======================================================
 EXTERNAL_FIELDS_LOAD,       380 : iP,iLd,i0,i1=   38   39   38   39 ; Wght=  0.5000000000  0.5000000000
 cg2d: Sum(rhs),rhsMax =   3.41060513164848E-13  2.64471265543698E-02
 EXTERNAL_FIELDS_LOAD,       381 : iP,iLd,i0,i1=   38   39   38   39 ; Wght=  0.4000000000  0.6000000000
 cg2d: Sum(rhs),rhsMax =   5.79092329644482E-13  2.65422257721807E-02
 EXTERNAL_FIELDS_LOAD,       382 : iP,iLd,i0,i1=   38   39   38   39 ; Wght=  0.3000000000  0.7000000000
 cg2d: Sum(rhs),rhsMax =   4.44089209850063E-13  2.65853387288776E-02
 EXTERNAL_FIELDS_LOAD,       383 : iP,iLd,i0,i1=   38   39   38   39 ; Wght=  0.2000000000  0.8000000000
 cg2d: Sum(rhs),rhsMax =   3.41060513164848E-13  2.65761964848181E-02
 EXTERNAL_FIELDS_LOAD,       384 : iP,iLd,i0,i1=   38   39   38   39 ; Wght=  0.1000000000  0.9000000000
 cg2d: Sum(rhs),rhsMax =   5.11590769747272E-13  2.65147727996643E-02
 EXTERNAL_FIELDS_LOAD,       385 : iP,iLd,i0,i1=   38   39   39   40 ; Wght=  1.0000000000  0.0000000000
 EXTERNAL_FIELDS_LOAD, it=       385 : Reading new data, i0,i1=   39   40 (prev=   38   39 )
(PID.TID 0000.0001)  MDS_READ_FIELD: opening global file: ../input/merid_halfgauss2p5hr_240x180.bin
(PID.TID 0000.0001)  MDS_READ_FIELD: opening global file: ../input/merid_halfgauss2p5hr_240x180.bin
 cg2d: Sum(rhs),rhsMax =   4.79616346638068E-13  2.64012861745101E-02
 EXTERNAL_FIELDS_LOAD,       386 : iP,iLd,i0,i1=   39   40   39   40 ; Wght=  0.9000000000  0.1000000000
 cg2d: Sum(rhs),rhsMax =   6.07514039074886E-13  2.62361996751902E-02
 EXTERNAL_FIELDS_LOAD,       387 : iP,iLd,i0,i1=   39   40   39   40 ; Wght=  0.8000000000  0.2000000000
 cg2d: Sum(rhs),rhsMax =   4.90274487674469E-13  2.60219711329967E-02
 EXTERNAL_FIELDS_LOAD,       388 : iP,iLd,i0,i1=   39   40   39   40 ; Wght=  0.7000000000  0.3000000000
 cg2d: Sum(rhs),rhsMax =   4.19220214098459E-13  2.60544449591208E-02
 EXTERNAL_FIELDS_LOAD,       389 : iP,iLd,i0,i1=   39   40   39   40 ; Wght=  0.6000000000  0.4000000000
 cg2d: Sum(rhs),rhsMax =   3.23296944770846E-13  2.60373396631809E-02
 EXTERNAL_FIELDS_LOAD,       390 : iP,iLd,i0,i1=   39   40   39   40 ; Wght=  0.5000000000  0.5000000000
 cg2d: Sum(rhs),rhsMax =   5.11590769747272E-13  2.59707048913267E-02
 EXTERNAL_FIELDS_LOAD,       391 : iP,iLd,i0,i1=   39   40   39   40 ; Wght=  0.4000000000  0.6000000000
 cg2d: Sum(rhs),rhsMax =   5.22248910783674E-13  2.58548847449808E-02
 EXTERNAL_FIELDS_LOAD,       392 : iP,iLd,i0,i1=   39   40   39   40 ; Wght=  0.3000000000  0.7000000000
 cg2d: Sum(rhs),rhsMax =   4.01456645704457E-13  2.57219256427389E-02
 EXTERNAL_FIELDS_LOAD,       393 : iP,iLd,i0,i1=   39   40   39   40 ; Wght=  0.2000000000  0.8000000000
 cg2d: Sum(rhs),rhsMax =   5.00932628710871E-13  2.56059115707513E-02
 EXTERNAL_FIELDS_LOAD,       394 : iP,iLd,i0,i1=   39   40   39   40 ; Wght=  0.1000000000  0.9000000000
 cg2d: Sum(rhs),rhsMax =   5.75539615965681E-13  2.54509838755175E-02
 EXTERNAL_FIELDS_LOAD,       395 : iP,iLd,i0,i1=   39   40   40   41 ; Wght=  1.0000000000  0.0000000000
 EXTERNAL_FIELDS_LOAD, it=       395 : Reading new data, i0,i1=   40   41 (prev=   39   40 )
(PID.TID 0000.0001)  MDS_READ_FIELD: opening global file: ../input/merid_halfgauss2p5hr_240x180.bin
(PID.TID 0000.0001)  MDS_READ_FIELD: opening global file: ../input/merid_halfgauss2p5hr_240x180.bin
 cg2d: Sum(rhs),rhsMax =   6.89226453687297E-13  2.52575892361261E-02
 EXTERNAL_FIELDS_LOAD,       396 : iP,iLd,i0,i1=   40   41   40   41 ; Wght=  0.9000000000  0.1000000000
 cg2d: Sum(rhs),rhsMax =   5.04485342389671E-13  2.50262571506020E-02
 EXTERNAL_FIELDS_LOAD,       397 : iP,iLd,i0,i1=   40   41   40   41 ; Wght=  0.8000000000  0.2000000000
 cg2d: Sum(rhs),rhsMax =   3.44613226843649E-13  2.47576059691464E-02
 EXTERNAL_FIELDS_LOAD,       398 : iP,iLd,i0,i1=   40   41   40   41 ; Wght=  0.7000000000  0.3000000000
 cg2d: Sum(rhs),rhsMax =   4.76063632959267E-13  2.44523491057342E-02
 EXTERNAL_FIELDS_LOAD,       399 : iP,iLd,i0,i1=   40   41   40   41 ; Wght=  0.6000000000  0.4000000000
 cg2d: Sum(rhs),rhsMax =   4.58300064565265E-13  2.41113012259987E-02
(PID.TID 0000.0001)      cg2d_init_res =   5.15934234763476E-01
(PID.TID 0000.0001)      cg2d_iters(min,last) =      -1      31
(PID.TID 0000.0001)      cg2d_last_res =   9.61876980713254E-08
(PID.TID 0000.0001) // =======================================================
(PID.TID 0000.0001) // Begin MONITOR dynamic field statistics
(PID.TID 0000.0001) // =======================================================
(PID.TID 0000.0001) %MON time_tsnumber                =                   400
(PID.TID 0000.0001) %MON time_secondsf                =   2.4000000000000E+04
(PID.TID 0000.0001) %MON dynstat_eta_max              =   2.1810121423560E-02
(PID.TID 0000.0001) %MON dynstat_eta_min              =  -1.0064357410195E-02
(PID.TID 0000.0001) %MON dynstat_eta_mean             =  -3.2789482335884E-19
(PID.TID 0000.0001) %MON dynstat_eta_sd               =   2.3176262376850E-03
(PID.TID 0000.0001) %MON dynstat_eta_del2             =   4.9391064976950E-07
(PID.TID 0000.0001) %MON dynstat_uvel_max             =   3.5274732125071E-02
(PID.TID 0000.0001) %MON dynstat_uvel_min             =  -1.2858965260373E-01
(PID.TID 0000.0001) %MON dynstat_uvel_mean            =  -4.6255122490176E-06
(PID.TID 0000.0001) %MON dynstat_uvel_sd              =   2.9988395283526E-03
(PID.TID 0000.0001) %MON dynstat_uvel_del2            =   1.3422003329720E-06
(PID.TID 0000.0001) %MON dynstat_vvel_max             =   1.2471977189538E-01
(PID.TID 0000.0001) %MON dynstat_vvel_min             =  -4.6981622815309E-02
(PID.TID 0000.0001) %MON dynstat_vvel_mean            =  -4.5974923616322E-05
(PID.TID 0000.0001) %MON dynstat_vvel_sd              =   3.5773796692233E-03
(PID.TID 0000.0001) %MON dynstat_vvel_del2            =   1.2725477624407E-06
(PID.TID 0000.0001) %MON dynstat_wvel_max             =   1.4460298071848E-04
(PID.TID 0000.0001) %MON dynstat_wvel_min             =  -2.0061249914896E-04
(PID.TID 0000.0001) %MON dynstat_wvel_mean            =  -2.5407346509730E-07
(PID.TID 0000.0001) %MON dynstat_wvel_sd              =   2.3255359817289E-06
(PID.TID 0000.0001) %MON dynstat_wvel_del2            =   7.4807552719891E-09
(PID.TID 0000.0001) %MON dynstat_theta_max            =   1.6580567400727E+01
(PID.TID 0000.0001) %MON dynstat_theta_min            =   4.1845554618848E+00
(PID.TID 0000.0001) %MON dynstat_theta_mean           =   8.3857184876440E+00
(PID.TID 0000.0001) %MON dynstat_theta_sd             =   3.8617941638442E+00
(PID.TID 0000.0001) %MON dynstat_theta_del2           =   6.5423274281673E-07
(PID.TID 0000.0001) %MON dynstat_salt_max             =   3.4476104059820E+01
(PID.TID 0000.0001) %MON dynstat_salt_min             =   3.3629731902044E+01
(PID.TID 0000.0001) %MON dynstat_salt_mean            =   3.4127682109404E+01
(PID.TID 0000.0001) %MON dynstat_salt_sd              =   2.8356759782855E-01
(PID.TID 0000.0001) %MON dynstat_salt_del2            =   2.2832855487271E-08
(PID.TID 0000.0001) %MON trAdv_CFL_u_max              =   3.9660797877515E-03
(PID.TID 0000.0001) %MON trAdv_CFL_v_max              =   3.1283810123422E-03
(PID.TID 0000.0001) %MON trAdv_CFL_w_max              =   4.5231430727268E-03
(PID.TID 0000.0001) %MON advcfl_uvel_max              =   3.8738629559529E-03
(PID.TID 0000.0001) %MON advcfl_vvel_max              =   3.1968499289656E-03
(PID.TID 0000.0001) %MON advcfl_wvel_max              =   4.2390759973649E-03
(PID.TID 0000.0001) %MON advcfl_W_hf_max              =   4.5040182472002E-03
(PID.TID 0000.0001) %MON pe_b_mean                    =   4.0232249448145E-08
(PID.TID 0000.0001) %MON ke_max                       =   1.1921327393016E-02
(PID.TID 0000.0001) %MON ke_mean                      =   1.0876182386437E-05
(PID.TID 0000.0001) %MON ke_vol                       =   1.0416098804501E+14
(PID.TID 0000.0001) %MON vort_r_min                   =  -5.6555742806513E-05
(PID.TID 0000.0001) %MON vort_r_max                   =   5.3316624291409E-05
(PID.TID 0000.0001) %MON vort_a_mean                  =   6.9456055905738E-04
(PID.TID 0000.0001) %MON vort_a_sd                    =   8.1094088439025E-07
(PID.TID 0000.0001) %MON vort_p_mean                  =   7.0575608364114E-04
(PID.TID 0000.0001) %MON vort_p_sd                    =   1.5175231448168E-04
(PID.TID 0000.0001) %MON surfExpan_theta_mean         =   3.7610315765294E-13
(PID.TID 0000.0001) %MON surfExpan_salt_mean          =  -4.4414813065705E-21
(PID.TID 0000.0001) // =======================================================
(PID.TID 0000.0001) // End MONITOR dynamic field statistics
(PID.TID 0000.0001) // =======================================================
(PID.TID 0000.0001) // =======================================================
(PID.TID 0000.0001) // Begin OBCS MONITOR field statistics
(PID.TID 0000.0001) // =======================================================
(PID.TID 0000.0001) %MON obc_S_vVel_max               =   5.9281465858442E-02
(PID.TID 0000.0001) %MON obc_S_vVel_min               =  -2.1728005231812E-04
(PID.TID 0000.0001) %MON obc_S_vVel_mean              =   1.3319194128956E-20
(PID.TID 0000.0001) %MON obc_S_vVel_sd                =   2.6536258402290E-03
(PID.TID 0000.0001) %MON obc_S_vVel_Int               =   6.3664629124105E-12
(PID.TID 0000.0001) // =======================================================
(PID.TID 0000.0001) // End OBCS MONITOR field statistics
(PID.TID 0000.0001) // =======================================================
 EXTERNAL_FIELDS_LOAD,       400 : iP,iLd,i0,i1=   40   41   40   41 ; Wght=  0.5000000000  0.5000000000
 cg2d: Sum(rhs),rhsMax =   7.53175299905706E-13  2.37719847620605E-02
 EXTERNAL_FIELDS_LOAD,       401 : iP,iLd,i0,i1=   40   41   40   41 ; Wght=  0.4000000000  0.6000000000
 cg2d: Sum(rhs),rhsMax =   6.46593889541691E-13  2.36200176923500E-02
 EXTERNAL_FIELDS_LOAD,       402 : iP,iLd,i0,i1=   40   41   40   41 ; Wght=  0.3000000000  0.7000000000
 cg2d: Sum(rhs),rhsMax =   3.48165940522449E-13  2.35284691641127E-02
 EXTERNAL_FIELDS_LOAD,       403 : iP,iLd,i0,i1=   40   41   40   41 ; Wght=  0.2000000000  0.8000000000
 cg2d: Sum(rhs),rhsMax =   5.29354338141275E-13  2.34079317732488E-02
 EXTERNAL_FIELDS_LOAD,       404 : iP,iLd,i0,i1=   40   41   40   41 ; Wght=  0.1000000000  0.9000000000
 cg2d: Sum(rhs),rhsMax =   5.25801624462474E-13  2.32591299788469E-02
 EXTERNAL_FIELDS_LOAD,       405 : iP,iLd,i0,i1=   40   41   41   42 ; Wght=  1.0000000000  0.0000000000
 EXTERNAL_FIELDS_LOAD, it=       405 : Reading new data, i0,i1=   41   42 (prev=   40   41 )
(PID.TID 0000.0001)  MDS_READ_FIELD: opening global file: ../input/merid_halfgauss2p5hr_240x180.bin
(PID.TID 0000.0001)  MDS_READ_FIELD: opening global file: ../input/merid_halfgauss2p5hr_240x180.bin
 cg2d: Sum(rhs),rhsMax =   4.68958205601666E-13  2.30827979539977E-02
 EXTERNAL_FIELDS_LOAD,       406 : iP,iLd,i0,i1=   41   42   41   42 ; Wght=  0.9000000000  0.1000000000
 cg2d: Sum(rhs),rhsMax =   6.11066752753686E-13  2.28796780486999E-02
 EXTERNAL_FIELDS_LOAD,       407 : iP,iLd,i0,i1=   41   42   41   42 ; Wght=  0.8000000000  0.2000000000
 cg2d: Sum(rhs),rhsMax =   8.17124146124115E-13  2.26505203633674E-02
 EXTERNAL_FIELDS_LOAD,       408 : iP,iLd,i0,i1=   41   42   41   42 ; Wght=  0.7000000000  0.3000000000
 cg2d: Sum(rhs),rhsMax =   5.47117906535277E-13  2.25235987690137E-02
 EXTERNAL_FIELDS_LOAD,       409 : iP,iLd,i0,i1=   41   42   41   42 ; Wght=  0.6000000000  0.4000000000
 cg2d: Sum(rhs),rhsMax =   4.83169060316868E-13  2.23764152034857E-02
 EXTERNAL_FIELDS_LOAD,       410 : iP,iLd,i0,i1=   41   42   41   42 ; Wght=  0.5000000000  0.5000000000
 cg2d: Sum(rhs),rhsMax =   6.43041175862891E-13  2.22002090901975E-02
 EXTERNAL_FIELDS_LOAD,       411 : iP,iLd,i0,i1=   41   42   41   42 ; Wght=  0.4000000000  0.6000000000
 cg2d: Sum(rhs),rhsMax =   7.28306304154103E-13  2.19954575592190E-02
 EXTERNAL_FIELDS_LOAD,       412 : iP,iLd,i0,i1=   41   42   41   42 ; Wght=  0.3000000000  0.7000000000
 cg2d: Sum(rhs),rhsMax =   4.22772927777260E-13  2.17627317834168E-02
 EXTERNAL_FIELDS_LOAD,       413 : iP,iLd,i0,i1=   41   42   41   42 ; Wght=  0.2000000000  0.8000000000
 cg2d: Sum(rhs),rhsMax =   6.99884594723699E-13  2.15026994629133E-02
 EXTERNAL_FIELDS_LOAD,       414 : iP,iLd,i0,i1=   41   42   41   42 ; Wght=  0.1000000000  0.9000000000
 cg2d: Sum(rhs),rhsMax =   2.59348098552437E-13  2.12161265574460E-02
 EXTERNAL_FIELDS_LOAD,       415 : iP,iLd,i0,i1=   41   42   42   43 ; Wght=  1.0000000000  0.0000000000
 EXTERNAL_FIELDS_LOAD, it=       415 : Reading new data, i0,i1=   42   43 (prev=   41   42 )
(PID.TID 0000.0001)  MDS_READ_FIELD: opening global file: ../input/merid_halfgauss2p5hr_240x180.bin
(PID.TID 0000.0001)  MDS_READ_FIELD: opening global file: ../input/merid_halfgauss2p5hr_240x180.bin
 cg2d: Sum(rhs),rhsMax =   5.47117906535277E-13  2.10095063232949E-02
 EXTERNAL_FIELDS_LOAD,       416 : iP,iLd,i0,i1=   42   43   42   43 ; Wght=  0.9000000000  0.1000000000
 cg2d: Sum(rhs),rhsMax =   5.25801624462474E-13  2.07982259452147E-02
 EXTERNAL_FIELDS_LOAD,       417 : iP,iLd,i0,i1=   42   43   42   43 ; Wght=  0.8000000000  0.2000000000
 cg2d: Sum(rhs),rhsMax =   6.60804744256893E-13  2.05621185728651E-02
 EXTERNAL_FIELDS_LOAD,       418 : iP,iLd,i0,i1=   42   43   42   43 ; Wght=  0.7000000000  0.3000000000
 cg2d: Sum(rhs),rhsMax =   5.25801624462474E-13  2.03018853265018E-02
 EXTERNAL_FIELDS_LOAD,       419 : iP,iLd,i0,i1=   42   43   42   43 ; Wght=  0.6000000000  0.4000000000
 cg2d: Sum(rhs),rhsMax =   6.00408611717285E-13  2.00183311444494E-02
(PID.TID 0000.0001)      cg2d_init_res =   5.93672116323574E-01
(PID.TID 0000.0001)      cg2d_iters(min,last) =      -1      32
(PID.TID 0000.0001)      cg2d_last_res =   6.51328251888551E-08
(PID.TID 0000.0001) // =======================================================
(PID.TID 0000.0001) // Begin MONITOR dynamic field statistics
(PID.TID 0000.0001) // =======================================================
(PID.TID 0000.0001) %MON time_tsnumber                =                   420
(PID.TID 0000.0001) %MON time_secondsf                =   2.5200000000000E+04
(PID.TID 0000.0001) %MON dynstat_eta_max              =   1.8109549590096E-02
(PID.TID 0000.0001) %MON dynstat_eta_min              =  -1.1718905908221E-02
(PID.TID 0000.0001) %MON dynstat_eta_mean             =  -2.0786189695069E-19
(PID.TID 0000.0001) %MON dynstat_eta_sd               =   2.0927771384595E-03
(PID.TID 0000.0001) %MON dynstat_eta_del2             =   4.4375741430960E-07
(PID.TID 0000.0001) %MON dynstat_uvel_max             =   6.6157559460469E-02
(PID.TID 0000.0001) %MON dynstat_uvel_min             =  -5.0896731716214E-02
(PID.TID 0000.0001) %MON dynstat_uvel_mean            =  -4.7657468174435E-05
(PID.TID 0000.0001) %MON dynstat_uvel_sd              =   7.5220023156743E-04
(PID.TID 0000.0001) %MON dynstat_uvel_del2            =   1.2387292522518E-06
(PID.TID 0000.0001) %MON dynstat_vvel_max             =   1.4492176386263E-01
(PID.TID 0000.0001) %MON dynstat_vvel_min             =  -3.6589477240539E-02
(PID.TID 0000.0001) %MON dynstat_vvel_mean            =  -1.6630934096724E-05
(PID.TID 0000.0001) %MON dynstat_vvel_sd              =   4.5982103552559E-03
(PID.TID 0000.0001) %MON dynstat_vvel_del2            =   1.2340947280712E-06
(PID.TID 0000.0001) %MON dynstat_wvel_max             =   1.6330068420556E-04
(PID.TID 0000.0001) %MON dynstat_wvel_min             =  -2.0516746562473E-04
(PID.TID 0000.0001) %MON dynstat_wvel_mean            =  -3.8062836053847E-07
(PID.TID 0000.0001) %MON dynstat_wvel_sd              =   2.4445670567633E-06
(PID.TID 0000.0001) %MON dynstat_wvel_del2            =   7.3897254959963E-09
(PID.TID 0000.0001) %MON dynstat_theta_max            =   1.6580471030088E+01
(PID.TID 0000.0001) %MON dynstat_theta_min            =   4.1845608615045E+00
(PID.TID 0000.0001) %MON dynstat_theta_mean           =   8.3857256545733E+00
(PID.TID 0000.0001) %MON dynstat_theta_sd             =   3.8617984805314E+00
(PID.TID 0000.0001) %MON dynstat_theta_del2           =   6.5116316352200E-07
(PID.TID 0000.0001) %MON dynstat_salt_max             =   3.4476103509466E+01
(PID.TID 0000.0001) %MON dynstat_salt_min             =   3.3629673962460E+01
(PID.TID 0000.0001) %MON dynstat_salt_mean            =   3.4127681672911E+01
(PID.TID 0000.0001) %MON dynstat_salt_sd              =   2.8356777218533E-01
(PID.TID 0000.0001) %MON dynstat_salt_del2            =   2.3226780335993E-08
(PID.TID 0000.0001) %MON trAdv_CFL_u_max              =   1.8785180736654E-03
(PID.TID 0000.0001) %MON trAdv_CFL_v_max              =   3.7305921891776E-03
(PID.TID 0000.0001) %MON trAdv_CFL_w_max              =   3.9386230677780E-03
(PID.TID 0000.0001) %MON advcfl_uvel_max              =   1.9930477582046E-03
(PID.TID 0000.0001) %MON advcfl_vvel_max              =   3.7146726895753E-03
(PID.TID 0000.0001) %MON advcfl_wvel_max              =   3.6706983662965E-03
(PID.TID 0000.0001) %MON advcfl_W_hf_max              =   3.9001170141900E-03
(PID.TID 0000.0001) %MON pe_b_mean                    =   3.2804504517050E-08
(PID.TID 0000.0001) %MON ke_max                       =   7.8522220388926E-03
(PID.TID 0000.0001) %MON ke_mean                      =   1.0813328242851E-05
(PID.TID 0000.0001) %MON ke_vol                       =   1.0416098804501E+14
(PID.TID 0000.0001) %MON vort_r_min                   =  -4.2967941361541E-05
(PID.TID 0000.0001) %MON vort_r_max                   =   5.2542988250585E-05
(PID.TID 0000.0001) %MON vort_a_mean                  =   6.9456055905738E-04
(PID.TID 0000.0001) %MON vort_a_sd                    =   7.9652436400394E-07
(PID.TID 0000.0001) %MON vort_p_mean                  =   7.0575608364114E-04
(PID.TID 0000.0001) %MON vort_p_sd                    =   1.5174469750379E-04
(PID.TID 0000.0001) %MON surfExpan_theta_mean         =   6.9495462602000E-13
(PID.TID 0000.0001) %MON surfExpan_salt_mean          =  -6.1983466190182E-21
(PID.TID 0000.0001) // =======================================================
(PID.TID 0000.0001) // End MONITOR dynamic field statistics
(PID.TID 0000.0001) // =======================================================
(PID.TID 0000.0001) // =======================================================
(PID.TID 0000.0001) // Begin OBCS MONITOR field statistics
(PID.TID 0000.0001) // =======================================================
(PID.TID 0000.0001) %MON obc_S_vVel_max               =   8.8886775833679E-02
(PID.TID 0000.0001) %MON obc_S_vVel_min               =  -3.8648769998585E-04
(PID.TID 0000.0001) %MON obc_S_vVel_mean              =  -9.4185729911906E-20
(PID.TID 0000.0001) %MON obc_S_vVel_sd                =   3.9797896555117E-03
(PID.TID 0000.0001) %MON obc_S_vVel_Int               =  -4.5019987737760E-11
(PID.TID 0000.0001) // =======================================================
(PID.TID 0000.0001) // End OBCS MONITOR field statistics
(PID.TID 0000.0001) // =======================================================
 EXTERNAL_FIELDS_LOAD,       420 : iP,iLd,i0,i1=   42   43   42   43 ; Wght=  0.5000000000  0.5000000000
 cg2d: Sum(rhs),rhsMax =   1.42108547152020E-13  1.97123655055896E-02
 EXTERNAL_FIELDS_LOAD,       421 : iP,iLd,i0,i1=   42   43   42   43 ; Wght=  0.4000000000  0.6000000000
 cg2d: Sum(rhs),rhsMax =   5.29354338141275E-13  1.94467614700724E-02
 EXTERNAL_FIELDS_LOAD,       422 : iP,iLd,i0,i1=   42   43   42   43 ; Wght=  0.3000000000  0.7000000000
 cg2d: Sum(rhs),rhsMax =   7.63833440942108E-13  1.92191051101878E-02
 EXTERNAL_FIELDS_LOAD,       423 : iP,iLd,i0,i1=   42   43   42   43 ; Wght=  0.2000000000  0.8000000000
 cg2d: Sum(rhs),rhsMax =   7.81597009336110E-13  1.89736190166554E-02
 EXTERNAL_FIELDS_LOAD,       424 : iP,iLd,i0,i1=   42   43   42   43 ; Wght=  0.1000000000  0.9000000000
 cg2d: Sum(rhs),rhsMax =   7.56728013584507E-13  1.87110869167689E-02
 EXTERNAL_FIELDS_LOAD,       425 : iP,iLd,i0,i1=   42   43   43   44 ; Wght=  1.0000000000  0.0000000000
 EXTERNAL_FIELDS_LOAD, it=       425 : Reading new data, i0,i1=   43   44 (prev=   42   43 )
(PID.TID 0000.0001)  MDS_READ_FIELD: opening global file: ../input/merid_halfgauss2p5hr_240x180.bin
(PID.TID 0000.0001)  MDS_READ_FIELD: opening global file: ../input/merid_halfgauss2p5hr_240x180.bin
 cg2d: Sum(rhs),rhsMax =   6.57252030578093E-13  1.84323565493460E-02
 EXTERNAL_FIELDS_LOAD,       426 : iP,iLd,i0,i1=   43   44   43   44 ; Wght=  0.9000000000  0.1000000000
 cg2d: Sum(rhs),rhsMax =   6.14619466432487E-13  1.81383380973924E-02
 EXTERNAL_FIELDS_LOAD,       427 : iP,iLd,i0,i1=   43   44   43   44 ; Wght=  0.8000000000  0.2000000000
 cg2d: Sum(rhs),rhsMax =   7.92255150372512E-13  1.79011401811654E-02
 EXTERNAL_FIELDS_LOAD,       428 : iP,iLd,i0,i1=   43   44   43   44 ; Wght=  0.7000000000  0.3000000000
 cg2d: Sum(rhs),rhsMax =   8.88178419700125E-13  1.77567010359473E-02
 EXTERNAL_FIELDS_LOAD,       429 : iP,iLd,i0,i1=   43   44   43   44 ; Wght=  0.6000000000  0.4000000000
 cg2d: Sum(rhs),rhsMax =   8.88178419700125E-13  1.76022520668499E-02
 EXTERNAL_FIELDS_LOAD,       430 : iP,iLd,i0,i1=   43   44   43   44 ; Wght=  0.5000000000  0.5000000000
 cg2d: Sum(rhs),rhsMax =   9.37916411203332E-13  1.74382906082452E-02
 EXTERNAL_FIELDS_LOAD,       431 : iP,iLd,i0,i1=   43   44   43   44 ; Wght=  0.4000000000  0.6000000000
 cg2d: Sum(rhs),rhsMax =   3.76587649952853E-13  1.72653136628069E-02
 EXTERNAL_FIELDS_LOAD,       432 : iP,iLd,i0,i1=   43   44   43   44 ; Wght=  0.3000000000  0.7000000000
 cg2d: Sum(rhs),rhsMax =   7.63833440942108E-13  1.71302529319449E-02
 EXTERNAL_FIELDS_LOAD,       433 : iP,iLd,i0,i1=   43   44   43   44 ; Wght=  0.2000000000  0.8000000000
 cg2d: Sum(rhs),rhsMax =   7.42517158869305E-13  1.70976576007081E-02
 EXTERNAL_FIELDS_LOAD,       434 : iP,iLd,i0,i1=   43   44   43   44 ; Wght=  0.1000000000  0.9000000000
 cg2d: Sum(rhs),rhsMax =   7.56728013584507E-13  1.70569778196995E-02
 EXTERNAL_FIELDS_LOAD,       435 : iP,iLd,i0,i1=   43   44   44   45 ; Wght=  1.0000000000  0.0000000000
 EXTERNAL_FIELDS_LOAD, it=       435 : Reading new data, i0,i1=   44   45 (prev=   43   44 )
(PID.TID 0000.0001)  MDS_READ_FIELD: opening global file: ../input/merid_halfgauss2p5hr_240x180.bin
(PID.TID 0000.0001)  MDS_READ_FIELD: opening global file: ../input/merid_halfgauss2p5hr_240x180.bin
 cg2d: Sum(rhs),rhsMax =   9.05941988094128E-13  1.70121460012780E-02
 EXTERNAL_FIELDS_LOAD,       436 : iP,iLd,i0,i1=   44   45   44   45 ; Wght=  0.9000000000  0.1000000000
 cg2d: Sum(rhs),rhsMax =   9.85878045867139E-13  1.70997572401694E-02
 EXTERNAL_FIELDS_LOAD,       437 : iP,iLd,i0,i1=   44   45   44   45 ; Wght=  0.8000000000  0.2000000000
 cg2d: Sum(rhs),rhsMax =   6.44817532702291E-13  1.71761521825633E-02
 EXTERNAL_FIELDS_LOAD,       438 : iP,iLd,i0,i1=   44   45   44   45 ; Wght=  0.7000000000  0.3000000000
 cg2d: Sum(rhs),rhsMax =   7.63833440942108E-13  1.72411353961368E-02
 EXTERNAL_FIELDS_LOAD,       439 : iP,iLd,i0,i1=   44   45   44   45 ; Wght=  0.6000000000  0.4000000000
 cg2d: Sum(rhs),rhsMax =   1.12088116566156E-12  1.72945756053379E-02
(PID.TID 0000.0001)      cg2d_init_res =   7.60647414182620E-01
(PID.TID 0000.0001)      cg2d_iters(min,last) =      -1      31
(PID.TID 0000.0001)      cg2d_last_res =   9.06252369468082E-08
(PID.TID 0000.0001) // =======================================================
(PID.TID 0000.0001) // Begin MONITOR dynamic field statistics
(PID.TID 0000.0001) // =======================================================
(PID.TID 0000.0001) %MON time_tsnumber                =                   440
(PID.TID 0000.0001) %MON time_secondsf                =   2.6400000000000E+04
(PID.TID 0000.0001) %MON dynstat_eta_max              =   1.5668523417039E-02
(PID.TID 0000.0001) %MON dynstat_eta_min              =  -9.7954035431334E-03
(PID.TID 0000.0001) %MON dynstat_eta_mean             =  -2.5616783074909E-19
(PID.TID 0000.0001) %MON dynstat_eta_sd               =   1.4834915283083E-03
(PID.TID 0000.0001) %MON dynstat_eta_del2             =   4.3109247469968E-07
(PID.TID 0000.0001) %MON dynstat_uvel_max             =   1.2487223433651E-01
(PID.TID 0000.0001) %MON dynstat_uvel_min             =  -4.5482471617387E-02
(PID.TID 0000.0001) %MON dynstat_uvel_mean            =  -3.8347753173805E-05
(PID.TID 0000.0001) %MON dynstat_uvel_sd              =   3.8242734009470E-03
(PID.TID 0000.0001) %MON dynstat_uvel_del2            =   1.1423891062449E-06
(PID.TID 0000.0001) %MON dynstat_vvel_max             =   9.9328501144833E-02
(PID.TID 0000.0001) %MON dynstat_vvel_min             =  -2.5812297567493E-02
(PID.TID 0000.0001) %MON dynstat_vvel_mean            =   5.5750637783900E-05
(PID.TID 0000.0001) %MON dynstat_vvel_sd              =   2.6336802718523E-03
(PID.TID 0000.0001) %MON dynstat_vvel_del2            =   1.1772803238617E-06
(PID.TID 0000.0001) %MON dynstat_wvel_max             =   1.6644214797683E-04
(PID.TID 0000.0001) %MON dynstat_wvel_min             =  -1.9101637273961E-04
(PID.TID 0000.0001) %MON dynstat_wvel_mean            =  -2.5929928132055E-07
(PID.TID 0000.0001) %MON dynstat_wvel_sd              =   2.1842213804817E-06
(PID.TID 0000.0001) %MON dynstat_wvel_del2            =   7.3088297630214E-09
(PID.TID 0000.0001) %MON dynstat_theta_max            =   1.6580404468314E+01
(PID.TID 0000.0001) %MON dynstat_theta_min            =   4.1845636447824E+00
(PID.TID 0000.0001) %MON dynstat_theta_mean           =   8.3857327760805E+00
(PID.TID 0000.0001) %MON dynstat_theta_sd             =   3.8618027178394E+00
(PID.TID 0000.0001) %MON dynstat_theta_del2           =   6.4160278551578E-07
(PID.TID 0000.0001) %MON dynstat_salt_max             =   3.4476103225783E+01
(PID.TID 0000.0001) %MON dynstat_salt_min             =   3.3629633232747E+01
(PID.TID 0000.0001) %MON dynstat_salt_mean            =   3.4127681238106E+01
(PID.TID 0000.0001) %MON dynstat_salt_sd              =   2.8356794173720E-01
(PID.TID 0000.0001) %MON dynstat_salt_del2            =   2.3240287666806E-08
(PID.TID 0000.0001) %MON trAdv_CFL_u_max              =   3.7069708025084E-03
(PID.TID 0000.0001) %MON trAdv_CFL_v_max              =   2.6367981956708E-03
(PID.TID 0000.0001) %MON trAdv_CFL_w_max              =   3.3749763941687E-03
(PID.TID 0000.0001) %MON advcfl_uvel_max              =   3.7618728492409E-03
(PID.TID 0000.0001) %MON advcfl_vvel_max              =   2.5460142125299E-03
(PID.TID 0000.0001) %MON advcfl_wvel_max              =   3.5707511013683E-03
(PID.TID 0000.0001) %MON advcfl_W_hf_max              =   3.7939230452038E-03
(PID.TID 0000.0001) %MON pe_b_mean                    =   1.6483812230571E-08
(PID.TID 0000.0001) %MON ke_max                       =   1.0044705976336E-02
(PID.TID 0000.0001) %MON ke_mean                      =   1.0761078786425E-05
(PID.TID 0000.0001) %MON ke_vol                       =   1.0416098804501E+14
(PID.TID 0000.0001) %MON vort_r_min                   =  -3.8462160717656E-05
(PID.TID 0000.0001) %MON vort_r_max                   =   4.3843532775018E-05
(PID.TID 0000.0001) %MON vort_a_mean                  =   6.9456055905738E-04
(PID.TID 0000.0001) %MON vort_a_sd                    =   8.0598498756320E-07
(PID.TID 0000.0001) %MON vort_p_mean                  =   7.0575608364114E-04
(PID.TID 0000.0001) %MON vort_p_sd                    =   1.5173985558223E-04
(PID.TID 0000.0001) %MON surfExpan_theta_mean         =   3.7311608848315E-12
(PID.TID 0000.0001) %MON surfExpan_salt_mean          =   2.3787012855273E-21
(PID.TID 0000.0001) // =======================================================
(PID.TID 0000.0001) // End MONITOR dynamic field statistics
(PID.TID 0000.0001) // =======================================================
(PID.TID 0000.0001) // =======================================================
(PID.TID 0000.0001) // Begin OBCS MONITOR field statistics
(PID.TID 0000.0001) // =======================================================
(PID.TID 0000.0001) %MON obc_S_vVel_max               =   6.0512397201806E-02
(PID.TID 0000.0001) %MON obc_S_vVel_min               =  -3.2147373205268E-04
(PID.TID 0000.0001) %MON obc_S_vVel_mean              =   3.6627783854630E-20
(PID.TID 0000.0001) %MON obc_S_vVel_sd                =   2.7111017088511E-03
(PID.TID 0000.0001) %MON obc_S_vVel_Int               =   1.7507773009129E-11
(PID.TID 0000.0001) // =======================================================
(PID.TID 0000.0001) // End OBCS MONITOR field statistics
(PID.TID 0000.0001) // =======================================================
 EXTERNAL_FIELDS_LOAD,       440 : iP,iLd,i0,i1=   44   45   44   45 ; Wght=  0.5000000000  0.5000000000
 cg2d: Sum(rhs),rhsMax =   7.37188088351104E-13  1.73364039785291E-02
 EXTERNAL_FIELDS_LOAD,       441 : iP,iLd,i0,i1=   44   45   44   45 ; Wght=  0.4000000000  0.6000000000
 cg2d: Sum(rhs),rhsMax =   8.56203996590921E-13  1.73666111882253E-02
 EXTERNAL_FIELDS_LOAD,       442 : iP,iLd,i0,i1=   44   45   44   45 ; Wght=  0.3000000000  0.7000000000
 cg2d: Sum(rhs),rhsMax =   5.68434188608080E-13  1.73852433427365E-02
 EXTERNAL_FIELDS_LOAD,       443 : iP,iLd,i0,i1=   44   45   44   45 ; Wght=  0.2000000000  0.8000000000
 cg2d: Sum(rhs),rhsMax =   8.31335000839317E-13  1.73923969095776E-02
 EXTERNAL_FIELDS_LOAD,       444 : iP,iLd,i0,i1=   44   45   44   45 ; Wght=  0.1000000000  0.9000000000
 cg2d: Sum(rhs),rhsMax =   8.72191208145523E-13  1.73882127700198E-02
 EXTERNAL_FIELDS_LOAD,       445 : iP,iLd,i0,i1=   44   45   45   46 ; Wght=  1.0000000000  0.0000000000
 EXTERNAL_FIELDS_LOAD, it=       445 : Reading new data, i0,i1=   45   46 (prev=   44   45 )
(PID.TID 0000.0001)  MDS_READ_FIELD: opening global file: ../input/merid_halfgauss2p5hr_240x180.bin
(PID.TID 0000.0001)  MDS_READ_FIELD: opening global file: ../input/merid_halfgauss2p5hr_240x180.bin
 cg2d: Sum(rhs),rhsMax =   7.46069872548105E-13  1.75025315338805E-02
 EXTERNAL_FIELDS_LOAD,       446 : iP,iLd,i0,i1=   45   46   45   46 ; Wght=  0.9000000000  0.1000000000
 cg2d: Sum(rhs),rhsMax =   8.65085780787922E-13  1.77126038012940E-02
 EXTERNAL_FIELDS_LOAD,       447 : iP,iLd,i0,i1=   45   46   45   46 ; Wght=  0.8000000000  0.2000000000
 cg2d: Sum(rhs),rhsMax =   6.67021993194794E-13  1.79074619191202E-02
 EXTERNAL_FIELDS_LOAD,       448 : iP,iLd,i0,i1=   45   46   45   46 ; Wght=  0.7000000000  0.3000000000
 cg2d: Sum(rhs),rhsMax =   8.16235967704415E-13  1.80866826653620E-02
 EXTERNAL_FIELDS_LOAD,       449 : iP,iLd,i0,i1=   45   46   45   46 ; Wght=  0.6000000000  0.4000000000
 cg2d: Sum(rhs),rhsMax =   5.90638649100583E-13  1.82499420458053E-02
 EXTERNAL_FIELDS_LOAD,       450 : iP,iLd,i0,i1=   45   46   45   46 ; Wght=  0.5000000000  0.5000000000
 cg2d: Sum(rhs),rhsMax =   7.77156117237610E-13  1.83970122006762E-02
 EXTERNAL_FIELDS_LOAD,       451 : iP,iLd,i0,i1=   45   46   45   46 ; Wght=  0.4000000000  0.6000000000
 cg2d: Sum(rhs),rhsMax =   7.12319092599500E-13  1.85277566537549E-02
 EXTERNAL_FIELDS_LOAD,       452 : iP,iLd,i0,i1=   45   46   45   46 ; Wght=  0.3000000000  0.7000000000
 cg2d: Sum(rhs),rhsMax =   7.21200876796502E-13  1.86421240312107E-02
 EXTERNAL_FIELDS_LOAD,       453 : iP,iLd,i0,i1=   45   46   45   46 ; Wght=  0.2000000000  0.8000000000
 cg2d: Sum(rhs),rhsMax =   6.75903777391795E-13  1.87401404065768E-02
 EXTERNAL_FIELDS_LOAD,       454 : iP,iLd,i0,i1=   45   46   45   46 ; Wght=  0.1000000000  0.9000000000
 cg2d: Sum(rhs),rhsMax =   6.63469279515994E-13  1.88219004538427E-02
 EXTERNAL_FIELDS_LOAD,       455 : iP,iLd,i0,i1=   45   46   46   47 ; Wght=  1.0000000000  0.0000000000
 EXTERNAL_FIELDS_LOAD, it=       455 : Reading new data, i0,i1=   46   47 (prev=   45   46 )
(PID.TID 0000.0001)  MDS_READ_FIELD: opening global file: ../input/merid_halfgauss2p5hr_240x180.bin
(PID.TID 0000.0001)  MDS_READ_FIELD: opening global file: ../input/merid_halfgauss2p5hr_240x180.bin
 cg2d: Sum(rhs),rhsMax =   7.79820652496710E-13  1.88875576121279E-02
 EXTERNAL_FIELDS_LOAD,       456 : iP,iLd,i0,i1=   46   47   46   47 ; Wght=  0.9000000000  0.1000000000
 cg2d: Sum(rhs),rhsMax =   6.02184968556685E-13  1.89373134824145E-02
 EXTERNAL_FIELDS_LOAD,       457 : iP,iLd,i0,i1=   46   47   46   47 ; Wght=  0.8000000000  0.2000000000
 cg2d: Sum(rhs),rhsMax =   6.67021993194794E-13  1.89714066890933E-02
 EXTERNAL_FIELDS_LOAD,       458 : iP,iLd,i0,i1=   46   47   46   47 ; Wght=  0.7000000000  0.3000000000
 cg2d: Sum(rhs),rhsMax =   7.14095449438901E-13  1.90305181179624E-02
 EXTERNAL_FIELDS_LOAD,       459 : iP,iLd,i0,i1=   46   47   46   47 ; Wght=  0.6000000000  0.4000000000
 cg2d: Sum(rhs),rhsMax =   5.79092329644482E-13  1.93031874431290E-02
(PID.TID 0000.0001)      cg2d_init_res =   6.22543977017464E-01
(PID.TID 0000.0001)      cg2d_iters(min,last) =      -1      31
(PID.TID 0000.0001)      cg2d_last_res =   6.87355596927399E-08
(PID.TID 0000.0001) // =======================================================
(PID.TID 0000.0001) // Begin MONITOR dynamic field statistics
(PID.TID 0000.0001) // =======================================================
(PID.TID 0000.0001) %MON time_tsnumber                =                   460
(PID.TID 0000.0001) %MON time_secondsf                =   2.7600000000000E+04
(PID.TID 0000.0001) %MON dynstat_eta_max              =   1.7474259414819E-02
(PID.TID 0000.0001) %MON dynstat_eta_min              =  -1.0301730761509E-02
(PID.TID 0000.0001) %MON dynstat_eta_mean             =  -2.7226980868189E-19
(PID.TID 0000.0001) %MON dynstat_eta_sd               =   1.4412453155055E-03
(PID.TID 0000.0001) %MON dynstat_eta_del2             =   4.2927247074754E-07
(PID.TID 0000.0001) %MON dynstat_uvel_max             =   1.2856214224990E-01
(PID.TID 0000.0001) %MON dynstat_uvel_min             =  -4.2233089386099E-02
(PID.TID 0000.0001) %MON dynstat_uvel_mean            =   1.7328868387927E-05
(PID.TID 0000.0001) %MON dynstat_uvel_sd              =   4.4802145811841E-03
(PID.TID 0000.0001) %MON dynstat_uvel_del2            =   1.0833273434778E-06
(PID.TID 0000.0001) %MON dynstat_vvel_max             =   5.7890070402032E-02
(PID.TID 0000.0001) %MON dynstat_vvel_min             =  -7.2976108031689E-02
(PID.TID 0000.0001) %MON dynstat_vvel_mean            =   7.1255403603210E-05
(PID.TID 0000.0001) %MON dynstat_vvel_sd              =   1.1456674104363E-03
(PID.TID 0000.0001) %MON dynstat_vvel_del2            =   1.0785253756110E-06
(PID.TID 0000.0001) %MON dynstat_wvel_max             =   1.5188038711406E-04
(PID.TID 0000.0001) %MON dynstat_wvel_min             =  -1.4089143655368E-04
(PID.TID 0000.0001) %MON dynstat_wvel_mean            =   3.0686510728799E-08
(PID.TID 0000.0001) %MON dynstat_wvel_sd              =   2.0118914465167E-06
(PID.TID 0000.0001) %MON dynstat_wvel_del2            =   7.0042921312558E-09
(PID.TID 0000.0001) %MON dynstat_theta_max            =   1.6580372190263E+01
(PID.TID 0000.0001) %MON dynstat_theta_min            =   4.1845603256611E+00
(PID.TID 0000.0001) %MON dynstat_theta_mean           =   8.3857352226559E+00
(PID.TID 0000.0001) %MON dynstat_theta_sd             =   3.8618031399606E+00
(PID.TID 0000.0001) %MON dynstat_theta_del2           =   6.3380894569633E-07
(PID.TID 0000.0001) %MON dynstat_salt_max             =   3.4476103564083E+01
(PID.TID 0000.0001) %MON dynstat_salt_min             =   3.3629602512478E+01
(PID.TID 0000.0001) %MON dynstat_salt_mean            =   3.4127681087131E+01
(PID.TID 0000.0001) %MON dynstat_salt_sd              =   2.8356794870154E-01
(PID.TID 0000.0001) %MON dynstat_salt_del2            =   2.3335767967367E-08
(PID.TID 0000.0001) %MON trAdv_CFL_u_max              =   3.9133397215976E-03
(PID.TID 0000.0001) %MON trAdv_CFL_v_max              =   2.3179289761206E-03
(PID.TID 0000.0001) %MON trAdv_CFL_w_max              =   3.1319543366175E-03
(PID.TID 0000.0001) %MON advcfl_uvel_max              =   3.8730341852202E-03
(PID.TID 0000.0001) %MON advcfl_vvel_max              =   1.8705827114819E-03
(PID.TID 0000.0001) %MON advcfl_wvel_max              =   3.2933624593468E-03
(PID.TID 0000.0001) %MON advcfl_W_hf_max              =   3.4991976130559E-03
(PID.TID 0000.0001) %MON pe_b_mean                    =   1.5558342761539E-08
(PID.TID 0000.0001) %MON ke_max                       =   9.3532354740231E-03
(PID.TID 0000.0001) %MON ke_mean                      =   1.0691889861463E-05
(PID.TID 0000.0001) %MON ke_vol                       =   1.0416098804501E+14
(PID.TID 0000.0001) %MON vort_r_min                   =  -3.8625008655438E-05
(PID.TID 0000.0001) %MON vort_r_max                   =   3.1319876317509E-05
(PID.TID 0000.0001) %MON vort_a_mean                  =   6.9456055905738E-04
(PID.TID 0000.0001) %MON vort_a_sd                    =   8.1553822222287E-07
(PID.TID 0000.0001) %MON vort_p_mean                  =   7.0575608364114E-04
(PID.TID 0000.0001) %MON vort_p_sd                    =   1.5174060504452E-04
(PID.TID 0000.0001) %MON surfExpan_theta_mean         =   2.8365443011934E-12
(PID.TID 0000.0001) %MON surfExpan_salt_mean          =  -2.7417963134864E-21
(PID.TID 0000.0001) // =======================================================
(PID.TID 0000.0001) // End MONITOR dynamic field statistics
(PID.TID 0000.0001) // =======================================================
(PID.TID 0000.0001) // =======================================================
(PID.TID 0000.0001) // Begin OBCS MONITOR field statistics
(PID.TID 0000.0001) // =======================================================
(PID.TID 0000.0001) %MON obc_S_vVel_max               =   9.7107505709112E-05
(PID.TID 0000.0001) %MON obc_S_vVel_min               =  -7.4413553592274E-03
(PID.TID 0000.0001) %MON obc_S_vVel_mean              =   9.8704742205659E-21
(PID.TID 0000.0001) %MON obc_S_vVel_sd                =   3.3321983567824E-04
(PID.TID 0000.0001) %MON obc_S_vVel_Int               =   4.7180037654471E-12
(PID.TID 0000.0001) // =======================================================
(PID.TID 0000.0001) // End OBCS MONITOR field statistics
(PID.TID 0000.0001) // =======================================================
 EXTERNAL_FIELDS_LOAD,       460 : iP,iLd,i0,i1=   46   47   46   47 ; Wght=  0.5000000000  0.5000000000
 cg2d: Sum(rhs),rhsMax =   7.73603403558809E-13  1.95786578411178E-02
 EXTERNAL_FIELDS_LOAD,       461 : iP,iLd,i0,i1=   46   47   46   47 ; Wght=  0.4000000000  0.6000000000
 cg2d: Sum(rhs),rhsMax =   8.45989944764369E-13  1.98387327728817E-02
 EXTERNAL_FIELDS_LOAD,       462 : iP,iLd,i0,i1=   46   47   46   47 ; Wght=  0.3000000000  0.7000000000
 cg2d: Sum(rhs),rhsMax =   5.65769653348980E-13  2.01167320063253E-02
 EXTERNAL_FIELDS_LOAD,       463 : iP,iLd,i0,i1=   46   47   46   47 ; Wght=  0.2000000000  0.8000000000
 cg2d: Sum(rhs),rhsMax =   2.82440737464640E-13  2.04698477403216E-02
 EXTERNAL_FIELDS_LOAD,       464 : iP,iLd,i0,i1=   46   47   46   47 ; Wght=  0.1000000000  0.9000000000
 cg2d: Sum(rhs),rhsMax =   6.61248833466743E-13  2.08201460685140E-02
 EXTERNAL_FIELDS_LOAD,       465 : iP,iLd,i0,i1=   46   47   47   48 ; Wght=  1.0000000000  0.0000000000
 EXTERNAL_FIELDS_LOAD, it=       465 : Reading new data, i0,i1=   47   48 (prev=   46   47 )
(PID.TID 0000.0001)  MDS_READ_FIELD: opening global file: ../input/merid_halfgauss2p5hr_240x180.bin
(PID.TID 0000.0001)  MDS_READ_FIELD: opening global file: ../input/merid_halfgauss2p5hr_240x180.bin
 cg2d: Sum(rhs),rhsMax =   7.01216862353249E-13  2.11714331597924E-02
 EXTERNAL_FIELDS_LOAD,       466 : iP,iLd,i0,i1=   47   48   47   48 ; Wght=  0.9000000000  0.1000000000
 cg2d: Sum(rhs),rhsMax =   5.83089132533132E-13  2.15370326794445E-02
 EXTERNAL_FIELDS_LOAD,       467 : iP,iLd,i0,i1=   47   48   47   48 ; Wght=  0.8000000000  0.2000000000
 cg2d: Sum(rhs),rhsMax =   6.43485265072741E-13  2.19222796165345E-02
 EXTERNAL_FIELDS_LOAD,       468 : iP,iLd,i0,i1=   47   48   47   48 ; Wght=  0.7000000000  0.3000000000
 cg2d: Sum(rhs),rhsMax =   7.20756787586652E-13  2.23323220323308E-02
 EXTERNAL_FIELDS_LOAD,       469 : iP,iLd,i0,i1=   47   48   47   48 ; Wght=  0.6000000000  0.4000000000
 cg2d: Sum(rhs),rhsMax =   6.98108237884298E-13  2.27176231084483E-02
 EXTERNAL_FIELDS_LOAD,       470 : iP,iLd,i0,i1=   47   48   47   48 ; Wght=  0.5000000000  0.5000000000
 cg2d: Sum(rhs),rhsMax =   5.66657831768680E-13  2.30768208381999E-02
 EXTERNAL_FIELDS_LOAD,       471 : iP,iLd,i0,i1=   47   48   47   48 ; Wght=  0.4000000000  0.6000000000
 cg2d: Sum(rhs),rhsMax =   5.54223333892878E-13  2.34085968467403E-02
 EXTERNAL_FIELDS_LOAD,       472 : iP,iLd,i0,i1=   47   48   47   48 ; Wght=  0.3000000000  0.7000000000
 cg2d: Sum(rhs),rhsMax =   7.20312698376802E-13  2.37116828954020E-02
 EXTERNAL_FIELDS_LOAD,       473 : iP,iLd,i0,i1=   47   48   47   48 ; Wght=  0.2000000000  0.8000000000
 cg2d: Sum(rhs),rhsMax =   7.53175299905706E-13  2.39889333319710E-02
 EXTERNAL_FIELDS_LOAD,       474 : iP,iLd,i0,i1=   47   48   47   48 ; Wght=  0.1000000000  0.9000000000
 cg2d: Sum(rhs),rhsMax =   5.53335155473178E-13  2.42953541094447E-02
 EXTERNAL_FIELDS_LOAD,       475 : iP,iLd,i0,i1=   47   48   48   49 ; Wght=  1.0000000000  0.0000000000
 EXTERNAL_FIELDS_LOAD, it=       475 : Reading new data, i0,i1=   48   49 (prev=   47   48 )
(PID.TID 0000.0001)  MDS_READ_FIELD: opening global file: ../input/merid_halfgauss2p5hr_240x180.bin
(PID.TID 0000.0001)  MDS_READ_FIELD: opening global file: ../input/merid_halfgauss2p5hr_240x180.bin
 cg2d: Sum(rhs),rhsMax =   4.83169060316868E-13  2.45716022740350E-02
 EXTERNAL_FIELDS_LOAD,       476 : iP,iLd,i0,i1=   48   49   48   49 ; Wght=  0.9000000000  0.1000000000
 cg2d: Sum(rhs),rhsMax =   5.20472553944273E-13  2.48165823935916E-02
 EXTERNAL_FIELDS_LOAD,       477 : iP,iLd,i0,i1=   48   49   48   49 ; Wght=  0.8000000000  0.2000000000
 cg2d: Sum(rhs),rhsMax =   7.42517158869305E-13  2.50870151577571E-02
 EXTERNAL_FIELDS_LOAD,       478 : iP,iLd,i0,i1=   48   49   48   49 ; Wght=  0.7000000000  0.3000000000
 cg2d: Sum(rhs),rhsMax =   2.03392858111329E-13  2.53527347965826E-02
 EXTERNAL_FIELDS_LOAD,       479 : iP,iLd,i0,i1=   48   49   48   49 ; Wght=  0.6000000000  0.4000000000
 cg2d: Sum(rhs),rhsMax =   5.45341549695877E-13  2.55886597285735E-02
(PID.TID 0000.0001)      cg2d_init_res =   3.23612659317923E-01
(PID.TID 0000.0001)      cg2d_iters(min,last) =      -1      30
(PID.TID 0000.0001)      cg2d_last_res =   7.95503324711332E-08
(PID.TID 0000.0001) // =======================================================
(PID.TID 0000.0001) // Begin MONITOR dynamic field statistics
(PID.TID 0000.0001) // =======================================================
(PID.TID 0000.0001) %MON time_tsnumber                =                   480
(PID.TID 0000.0001) %MON time_secondsf                =   2.8800000000000E+04
(PID.TID 0000.0001) %MON dynstat_eta_max              =   2.3196301974449E-02
(PID.TID 0000.0001) %MON dynstat_eta_min              =  -1.0436766138265E-02
(PID.TID 0000.0001) %MON dynstat_eta_mean             =  -4.1352806963782E-19
(PID.TID 0000.0001) %MON dynstat_eta_sd               =   1.8236635551963E-03
(PID.TID 0000.0001) %MON dynstat_eta_del2             =   4.4278043771752E-07
(PID.TID 0000.0001) %MON dynstat_uvel_max             =   7.3898897107261E-02
(PID.TID 0000.0001) %MON dynstat_uvel_min             =  -3.7657853204986E-02
(PID.TID 0000.0001) %MON dynstat_uvel_mean            =   4.9721208058991E-05
(PID.TID 0000.0001) %MON dynstat_uvel_sd              =   2.2321152614320E-03
(PID.TID 0000.0001) %MON dynstat_uvel_del2            =   1.0221091423276E-06
(PID.TID 0000.0001) %MON dynstat_vvel_max             =   6.2702732072102E-02
(PID.TID 0000.0001) %MON dynstat_vvel_min             =  -1.2253339160840E-01
(PID.TID 0000.0001) %MON dynstat_vvel_mean            =   1.0012639425721E-05
(PID.TID 0000.0001) %MON dynstat_vvel_sd              =   4.0362270836502E-03
(PID.TID 0000.0001) %MON dynstat_vvel_del2            =   1.0000368382292E-06
(PID.TID 0000.0001) %MON dynstat_wvel_max             =   1.3893016875156E-04
(PID.TID 0000.0001) %MON dynstat_wvel_min             =  -1.3018445141826E-04
(PID.TID 0000.0001) %MON dynstat_wvel_mean            =   2.9958199270891E-07
(PID.TID 0000.0001) %MON dynstat_wvel_sd              =   2.0734384626078E-06
(PID.TID 0000.0001) %MON dynstat_wvel_del2            =   6.5654152790175E-09
(PID.TID 0000.0001) %MON dynstat_theta_max            =   1.6580347138596E+01
(PID.TID 0000.0001) %MON dynstat_theta_min            =   4.1845530995181E+00
(PID.TID 0000.0001) %MON dynstat_theta_mean           =   8.3857313684564E+00
(PID.TID 0000.0001) %MON dynstat_theta_sd             =   3.8617984570395E+00
(PID.TID 0000.0001) %MON dynstat_theta_del2           =   6.2652819228493E-07
(PID.TID 0000.0001) %MON dynstat_salt_max             =   3.4476104300606E+01
(PID.TID 0000.0001) %MON dynstat_salt_min             =   3.3629601892678E+01
(PID.TID 0000.0001) %MON dynstat_salt_mean            =   3.4127681319731E+01
(PID.TID 0000.0001) %MON dynstat_salt_sd              =   2.8356773913123E-01
(PID.TID 0000.0001) %MON dynstat_salt_del2            =   2.3363743138197E-08
(PID.TID 0000.0001) %MON trAdv_CFL_u_max              =   2.3388865970653E-03
(PID.TID 0000.0001) %MON trAdv_CFL_v_max              =   3.1062519807441E-03
(PID.TID 0000.0001) %MON trAdv_CFL_w_max              =   2.7851329800722E-03
(PID.TID 0000.0001) %MON advcfl_uvel_max              =   2.2262615552108E-03
(PID.TID 0000.0001) %MON advcfl_vvel_max              =   3.1408751453612E-03
(PID.TID 0000.0001) %MON advcfl_wvel_max              =   2.7091267376993E-03
(PID.TID 0000.0001) %MON advcfl_W_hf_max              =   2.8784471588056E-03
(PID.TID 0000.0001) %MON pe_b_mean                    =   2.4910185166297E-08
(PID.TID 0000.0001) %MON ke_max                       =   6.9664181025667E-03
(PID.TID 0000.0001) %MON ke_mean                      =   1.0610683289623E-05
(PID.TID 0000.0001) %MON ke_vol                       =   1.0416098804501E+14
(PID.TID 0000.0001) %MON vort_r_min                   =  -3.5044738587210E-05
(PID.TID 0000.0001) %MON vort_r_max                   =   3.1482806754250E-05
(PID.TID 0000.0001) %MON vort_a_mean                  =   6.9456055905738E-04
(PID.TID 0000.0001) %MON vort_a_sd                    =   8.0257854393991E-07
(PID.TID 0000.0001) %MON vort_p_mean                  =   7.0575608364114E-04
(PID.TID 0000.0001) %MON vort_p_sd                    =   1.5174625793560E-04
(PID.TID 0000.0001) %MON surfExpan_theta_mean         =   2.2391782137167E-12
(PID.TID 0000.0001) %MON surfExpan_salt_mean          =   2.8590159681818E-21
(PID.TID 0000.0001) // =======================================================
(PID.TID 0000.0001) // End MONITOR dynamic field statistics
(PID.TID 0000.0001) // =======================================================
(PID.TID 0000.0001) // =======================================================
(PID.TID 0000.0001) // Begin OBCS MONITOR field statistics
(PID.TID 0000.0001) // =======================================================
(PID.TID 0000.0001) %MON obc_S_vVel_max               =   2.8402208020601E-04
(PID.TID 0000.0001) %MON obc_S_vVel_min               =  -7.0257904141138E-02
(PID.TID 0000.0001) %MON obc_S_vVel_mean              =   4.5190122937531E-21
(PID.TID 0000.0001) %MON obc_S_vVel_sd                =   3.1476560776100E-03
(PID.TID 0000.0001) %MON obc_S_vVel_Int               =   2.1600499167107E-12
(PID.TID 0000.0001) // =======================================================
(PID.TID 0000.0001) // End OBCS MONITOR field statistics
(PID.TID 0000.0001) // =======================================================
 EXTERNAL_FIELDS_LOAD,       480 : iP,iLd,i0,i1=   48   49   48   49 ; Wght=  0.5000000000  0.5000000000
 cg2d: Sum(rhs),rhsMax =   6.67910171614494E-13  2.57937940248859E-02
 EXTERNAL_FIELDS_LOAD,       481 : iP,iLd,i0,i1=   48   49   48   49 ; Wght=  0.4000000000  0.6000000000
 cg2d: Sum(rhs),rhsMax =   4.31654711974261E-13  2.59671303836793E-02
 EXTERNAL_FIELDS_LOAD,       482 : iP,iLd,i0,i1=   48   49   48   49 ; Wght=  0.3000000000  0.7000000000
 cg2d: Sum(rhs),rhsMax =   7.70050689880009E-13  2.61076582976833E-02
 EXTERNAL_FIELDS_LOAD,       483 : iP,iLd,i0,i1=   48   49   48   49 ; Wght=  0.2000000000  0.8000000000
 cg2d: Sum(rhs),rhsMax =   5.52446977053478E-13  2.62143737487716E-02
 EXTERNAL_FIELDS_LOAD,       484 : iP,iLd,i0,i1=   48   49   48   49 ; Wght=  0.1000000000  0.9000000000
 cg2d: Sum(rhs),rhsMax =   5.55111512312578E-13  2.62862903032396E-02
 EXTERNAL_FIELDS_LOAD,       485 : iP,iLd,i0,i1=   48   49   49   50 ; Wght=  1.0000000000  0.0000000000
 EXTERNAL_FIELDS_LOAD, it=       485 : Reading new data, i0,i1=   49   50 (prev=   48   49 )
(PID.TID 0000.0001)  MDS_READ_FIELD: opening global file: ../input/merid_halfgauss2p5hr_240x180.bin
(PID.TID 0000.0001)  MDS_READ_FIELD: opening global file: ../input/merid_halfgauss2p5hr_240x180.bin
 cg2d: Sum(rhs),rhsMax =   3.62376795237651E-13  2.63224514539532E-02
 EXTERNAL_FIELDS_LOAD,       486 : iP,iLd,i0,i1=   49   50   49   50 ; Wght=  0.9000000000  0.1000000000
 cg2d: Sum(rhs),rhsMax =   4.87609952415369E-13  2.63219440307528E-02
 EXTERNAL_FIELDS_LOAD,       487 : iP,iLd,i0,i1=   49   50   49   50 ; Wght=  0.8000000000  0.2000000000
 cg2d: Sum(rhs),rhsMax =   3.29514193708746E-13  2.62839124788708E-02
 EXTERNAL_FIELDS_LOAD,       488 : iP,iLd,i0,i1=   49   50   49   50 ; Wght=  0.7000000000  0.3000000000
 cg2d: Sum(rhs),rhsMax =   2.59348098552437E-13  2.62075737869938E-02
 EXTERNAL_FIELDS_LOAD,       489 : iP,iLd,i0,i1=   49   50   49   50 ; Wght=  0.6000000000  0.4000000000
 cg2d: Sum(rhs),rhsMax =   5.41788836017076E-13  2.60922328322721E-02
 EXTERNAL_FIELDS_LOAD,       490 : iP,iLd,i0,i1=   49   50   49   50 ; Wght=  0.5000000000  0.5000000000
 cg2d: Sum(rhs),rhsMax =   4.81392703477468E-13  2.59372978992233E-02
 EXTERNAL_FIELDS_LOAD,       491 : iP,iLd,i0,i1=   49   50   49   50 ; Wght=  0.4000000000  0.6000000000
 cg2d: Sum(rhs),rhsMax =   4.36095604072761E-13  2.57422961232509E-02
 EXTERNAL_FIELDS_LOAD,       492 : iP,iLd,i0,i1=   49   50   49   50 ; Wght=  0.3000000000  0.7000000000
 cg2d: Sum(rhs),rhsMax =   4.75175454539567E-13  2.55068886074136E-02
 EXTERNAL_FIELDS_LOAD,       493 : iP,iLd,i0,i1=   49   50   49   50 ; Wght=  0.2000000000  0.8000000000
 cg2d: Sum(rhs),rhsMax =   6.25277607468888E-13  2.52580977213790E-02
 EXTERNAL_FIELDS_LOAD,       494 : iP,iLd,i0,i1=   49   50   49   50 ; Wght=  0.1000000000  0.9000000000
 cg2d: Sum(rhs),rhsMax =   4.67181848762266E-13  2.50384441971831E-02
 EXTERNAL_FIELDS_LOAD,       495 : iP,iLd,i0,i1=   49   50   50   51 ; Wght=  1.0000000000  0.0000000000
 EXTERNAL_FIELDS_LOAD, it=       495 : Reading new data, i0,i1=   50   51 (prev=   49   50 )
(PID.TID 0000.0001)  MDS_READ_FIELD: opening global file: ../input/merid_halfgauss2p5hr_240x180.bin
(PID.TID 0000.0001)  MDS_READ_FIELD: opening global file: ../input/merid_halfgauss2p5hr_240x180.bin
 cg2d: Sum(rhs),rhsMax =   3.97903932025656E-13  2.47774248888256E-02
 EXTERNAL_FIELDS_LOAD,       496 : iP,iLd,i0,i1=   50   51   50   51 ; Wght=  0.9000000000  0.1000000000
 cg2d: Sum(rhs),rhsMax =   3.89022147828655E-13  2.44757468566207E-02
 EXTERNAL_FIELDS_LOAD,       497 : iP,iLd,i0,i1=   50   51   50   51 ; Wght=  0.8000000000  0.2000000000
 cg2d: Sum(rhs),rhsMax =   5.11590769747272E-13  2.41343297707299E-02
 EXTERNAL_FIELDS_LOAD,       498 : iP,iLd,i0,i1=   50   51   50   51 ; Wght=  0.7000000000  0.3000000000
 cg2d: Sum(rhs),rhsMax =   4.26325641456060E-13  2.37543095665982E-02
 EXTERNAL_FIELDS_LOAD,       499 : iP,iLd,i0,i1=   50   51   50   51 ; Wght=  0.6000000000  0.4000000000
 cg2d: Sum(rhs),rhsMax =   5.38236122338276E-13  2.33370402790646E-02
(PID.TID 0000.0001)      cg2d_init_res =   4.67913948148528E-01
(PID.TID 0000.0001)      cg2d_iters(min,last) =      -1      31
(PID.TID 0000.0001)      cg2d_last_res =   7.08039080410580E-08
(PID.TID 0000.0001) // =======================================================
(PID.TID 0000.0001) // Begin MONITOR dynamic field statistics
(PID.TID 0000.0001) // =======================================================
(PID.TID 0000.0001) %MON time_tsnumber                =                   500
(PID.TID 0000.0001) %MON time_secondsf                =   3.0000000000000E+04
(PID.TID 0000.0001) %MON dynstat_eta_max              =   2.1125637836726E-02
(PID.TID 0000.0001) %MON dynstat_eta_min              =  -1.5908105105564E-02
(PID.TID 0000.0001) %MON dynstat_eta_mean             =  -2.4884874987055E-19
(PID.TID 0000.0001) %MON dynstat_eta_sd               =   1.7258605137976E-03
(PID.TID 0000.0001) %MON dynstat_eta_del2             =   5.0429605757233E-07
(PID.TID 0000.0001) %MON dynstat_uvel_max             =   3.2647073953201E-02
(PID.TID 0000.0001) %MON dynstat_uvel_min             =  -7.0322411033409E-02
(PID.TID 0000.0001) %MON dynstat_uvel_mean            =   2.5460854951475E-05
(PID.TID 0000.0001) %MON dynstat_uvel_sd              =   1.5433530793152E-03
(PID.TID 0000.0001) %MON dynstat_uvel_del2            =   9.4644577737026E-07
(PID.TID 0000.0001) %MON dynstat_vvel_max             =   6.4156118349198E-02
(PID.TID 0000.0001) %MON dynstat_vvel_min             =  -1.1740668523156E-01
(PID.TID 0000.0001) %MON dynstat_vvel_mean            =  -4.3015749362281E-05
(PID.TID 0000.0001) %MON dynstat_vvel_sd              =   4.3335944909129E-03
(PID.TID 0000.0001) %MON dynstat_vvel_del2            =   9.6165703477527E-07
(PID.TID 0000.0001) %MON dynstat_wvel_max             =   1.3025386269331E-04
(PID.TID 0000.0001) %MON dynstat_wvel_min             =  -1.2377240958254E-04
(PID.TID 0000.0001) %MON dynstat_wvel_mean            =   3.7328642804855E-07
(PID.TID 0000.0001) %MON dynstat_wvel_sd              =   2.1190045775151E-06
(PID.TID 0000.0001) %MON dynstat_wvel_del2            =   6.1268169101761E-09
(PID.TID 0000.0001) %MON dynstat_theta_max            =   1.6580302491780E+01
(PID.TID 0000.0001) %MON dynstat_theta_min            =   4.1845448780056E+00
(PID.TID 0000.0001) %MON dynstat_theta_mean           =   8.3857237622040E+00
(PID.TID 0000.0001) %MON dynstat_theta_sd             =   3.8617907960574E+00
(PID.TID 0000.0001) %MON dynstat_theta_del2           =   6.1670416560032E-07
(PID.TID 0000.0001) %MON dynstat_salt_max             =   3.4476105138583E+01
(PID.TID 0000.0001) %MON dynstat_salt_min             =   3.3629630774761E+01
(PID.TID 0000.0001) %MON dynstat_salt_mean            =   3.4127681782334E+01
(PID.TID 0000.0001) %MON dynstat_salt_sd              =   2.8356740465610E-01
(PID.TID 0000.0001) %MON dynstat_salt_del2            =   2.3193433253016E-08
(PID.TID 0000.0001) %MON trAdv_CFL_u_max              =   2.0217634414209E-03
(PID.TID 0000.0001) %MON trAdv_CFL_v_max              =   3.0536232316807E-03
(PID.TID 0000.0001) %MON trAdv_CFL_w_max              =   2.8169905537019E-03
(PID.TID 0000.0001) %MON advcfl_uvel_max              =   2.1185171400620E-03
(PID.TID 0000.0001) %MON advcfl_vvel_max              =   3.0094632548941E-03
(PID.TID 0000.0001) %MON advcfl_wvel_max              =   3.0647967692544E-03
(PID.TID 0000.0001) %MON advcfl_W_hf_max              =   3.2563465673329E-03
(PID.TID 0000.0001) %MON pe_b_mean                    =   2.2309965711109E-08
(PID.TID 0000.0001) %MON ke_max                       =   6.3304297337994E-03
(PID.TID 0000.0001) %MON ke_mean                      =   1.0541344355875E-05
(PID.TID 0000.0001) %MON ke_vol                       =   1.0416098804501E+14
(PID.TID 0000.0001) %MON vort_r_min                   =  -3.0901550571249E-05
(PID.TID 0000.0001) %MON vort_r_max                   =   3.5780567831347E-05
(PID.TID 0000.0001) %MON vort_a_mean                  =   6.9456055905738E-04
(PID.TID 0000.0001) %MON vort_a_sd                    =   7.9337736879399E-07
(PID.TID 0000.0001) %MON vort_p_mean                  =   7.0575608364114E-04
(PID.TID 0000.0001) %MON vort_p_sd                    =   1.5175156051148E-04
(PID.TID 0000.0001) %MON surfExpan_theta_mean         =   2.0378079311079E-12
(PID.TID 0000.0001) %MON surfExpan_salt_mean          =   3.0648651178909E-21
(PID.TID 0000.0001) // =======================================================
(PID.TID 0000.0001) // End MONITOR dynamic field statistics
(PID.TID 0000.0001) // =======================================================
(PID.TID 0000.0001) // =======================================================
(PID.TID 0000.0001) // Begin OBCS MONITOR field statistics
(PID.TID 0000.0001) // =======================================================
(PID.TID 0000.0001) %MON obc_S_vVel_max               =   3.9967663496489E-04
(PID.TID 0000.0001) %MON obc_S_vVel_min               =  -8.6702840908134E-02
(PID.TID 0000.0001) %MON obc_S_vVel_mean              =  -3.2584457065483E-20
(PID.TID 0000.0001) %MON obc_S_vVel_sd                =   3.8856591155199E-03
(PID.TID 0000.0001) %MON obc_S_vVel_Int               =  -1.5575096767861E-11
(PID.TID 0000.0001) // =======================================================
(PID.TID 0000.0001) // End OBCS MONITOR field statistics
(PID.TID 0000.0001) // =======================================================
 EXTERNAL_FIELDS_LOAD,       500 : iP,iLd,i0,i1=   50   51   50   51 ; Wght=  0.5000000000  0.5000000000
 cg2d: Sum(rhs),rhsMax =   5.45341549695877E-13  2.28840939149284E-02
 EXTERNAL_FIELDS_LOAD,       501 : iP,iLd,i0,i1=   50   51   50   51 ; Wght=  0.4000000000  0.6000000000
 cg2d: Sum(rhs),rhsMax =   2.34479102800833E-13  2.23972582430298E-02
 EXTERNAL_FIELDS_LOAD,       502 : iP,iLd,i0,i1=   50   51   50   51 ; Wght=  0.3000000000  0.7000000000
 cg2d: Sum(rhs),rhsMax =   4.51194637207664E-13  2.18785324032191E-02
 EXTERNAL_FIELDS_LOAD,       503 : iP,iLd,i0,i1=   50   51   50   51 ; Wght=  0.2000000000  0.8000000000
 cg2d: Sum(rhs),rhsMax =   5.31130694980675E-13  2.13301202608546E-02
 EXTERNAL_FIELDS_LOAD,       504 : iP,iLd,i0,i1=   50   51   50   51 ; Wght=  0.1000000000  0.9000000000
 cg2d: Sum(rhs),rhsMax =   6.75015598972095E-13  2.07544214613738E-02
 EXTERNAL_FIELDS_LOAD,       505 : iP,iLd,i0,i1=   50   51   51   52 ; Wght=  1.0000000000  0.0000000000
 EXTERNAL_FIELDS_LOAD, it=       505 : Reading new data, i0,i1=   51   52 (prev=   50   51 )
(PID.TID 0000.0001)  MDS_READ_FIELD: opening global file: ../input/merid_halfgauss2p5hr_240x180.bin
(PID.TID 0000.0001)  MDS_READ_FIELD: opening global file: ../input/merid_halfgauss2p5hr_240x180.bin
 cg2d: Sum(rhs),rhsMax =   5.61328761250479E-13  2.01540201697001E-02
 EXTERNAL_FIELDS_LOAD,       506 : iP,iLd,i0,i1=   51   52   51   52 ; Wght=  0.9000000000  0.1000000000
 cg2d: Sum(rhs),rhsMax =   6.18172180111287E-13  1.95316715113300E-02
 EXTERNAL_FIELDS_LOAD,       507 : iP,iLd,i0,i1=   51   52   51   52 ; Wght=  0.8000000000  0.2000000000
 cg2d: Sum(rhs),rhsMax =   5.71986902286881E-13  1.90875263981791E-02
 EXTERNAL_FIELDS_LOAD,       508 : iP,iLd,i0,i1=   51   52   51   52 ; Wght=  0.7000000000  0.3000000000
 cg2d: Sum(rhs),rhsMax =   6.35935748505290E-13  1.91918902681466E-02
 EXTERNAL_FIELDS_LOAD,       509 : iP,iLd,i0,i1=   51   52   51   52 ; Wght=  0.6000000000  0.4000000000
 cg2d: Sum(rhs),rhsMax =   7.01660951563099E-13  1.92779557035257E-02
 EXTERNAL_FIELDS_LOAD,       510 : iP,iLd,i0,i1=   51   52   51   52 ; Wght=  0.5000000000  0.5000000000
 cg2d: Sum(rhs),rhsMax =   5.29354338141275E-13  1.93458335425916E-02
 EXTERNAL_FIELDS_LOAD,       511 : iP,iLd,i0,i1=   51   52   51   52 ; Wght=  0.4000000000  0.6000000000
 cg2d: Sum(rhs),rhsMax =   4.88498130835069E-13  1.93957463553942E-02
 EXTERNAL_FIELDS_LOAD,       512 : iP,iLd,i0,i1=   51   52   51   52 ; Wght=  0.3000000000  0.7000000000
 cg2d: Sum(rhs),rhsMax =   5.20472553944273E-13  1.94280224627052E-02
 EXTERNAL_FIELDS_LOAD,       513 : iP,iLd,i0,i1=   51   52   51   52 ; Wght=  0.2000000000  0.8000000000
 cg2d: Sum(rhs),rhsMax =   4.99156271871470E-13  1.94430889747469E-02
 EXTERNAL_FIELDS_LOAD,       514 : iP,iLd,i0,i1=   51   52   51   52 ; Wght=  0.1000000000  0.9000000000
 cg2d: Sum(rhs),rhsMax =   6.83897383169096E-13  1.94414639950767E-02
 EXTERNAL_FIELDS_LOAD,       515 : iP,iLd,i0,i1=   51   52   52   53 ; Wght=  1.0000000000  0.0000000000
 EXTERNAL_FIELDS_LOAD, it=       515 : Reading new data, i0,i1=   52   53 (prev=   51   52 )
(PID.TID 0000.0001)  MDS_READ_FIELD: opening global file: ../input/merid_halfgauss2p5hr_240x180.bin
(PID.TID 0000.0001)  MDS_READ_FIELD: opening global file: ../input/merid_halfgauss2p5hr_240x180.bin
 cg2d: Sum(rhs),rhsMax =   5.47117906535277E-13  1.94237481439777E-02
 EXTERNAL_FIELDS_LOAD,       516 : iP,iLd,i0,i1=   52   53   52   53 ; Wght=  0.9000000000  0.1000000000
 cg2d: Sum(rhs),rhsMax =   5.36459765498876E-13  1.93906155610428E-02
 EXTERNAL_FIELDS_LOAD,       517 : iP,iLd,i0,i1=   52   53   52   53 ; Wght=  0.8000000000  0.2000000000
 cg2d: Sum(rhs),rhsMax =   6.23501250629488E-13  1.93428045482708E-02
 EXTERNAL_FIELDS_LOAD,       518 : iP,iLd,i0,i1=   52   53   52   53 ; Wght=  0.7000000000  0.3000000000
 cg2d: Sum(rhs),rhsMax =   6.50146603220492E-13  1.92811080129770E-02
 EXTERNAL_FIELDS_LOAD,       519 : iP,iLd,i0,i1=   52   53   52   53 ; Wght=  0.6000000000  0.4000000000
 cg2d: Sum(rhs),rhsMax =   7.21200876796502E-13  1.92063638642920E-02
(PID.TID 0000.0001)      cg2d_init_res =   6.34097041205193E-01
(PID.TID 0000.0001)      cg2d_iters(min,last) =      -1      32
(PID.TID 0000.0001)      cg2d_last_res =   6.68384172497023E-08
(PID.TID 0000.0001) // =======================================================
(PID.TID 0000.0001) // Begin MONITOR dynamic field statistics
(PID.TID 0000.0001) // =======================================================
(PID.TID 0000.0001) %MON time_tsnumber                =                   520
(PID.TID 0000.0001) %MON time_secondsf                =   3.1200000000000E+04
(PID.TID 0000.0001) %MON dynstat_eta_max              =   1.3081540127260E-02
(PID.TID 0000.0001) %MON dynstat_eta_min              =  -1.7354102865097E-02
(PID.TID 0000.0001) %MON dynstat_eta_mean             =  -3.0081422410822E-19
(PID.TID 0000.0001) %MON dynstat_eta_sd               =   1.5099167948225E-03
(PID.TID 0000.0001) %MON dynstat_eta_del2             =   5.5299536832196E-07
(PID.TID 0000.0001) %MON dynstat_uvel_max             =   3.4305292235555E-02
(PID.TID 0000.0001) %MON dynstat_uvel_min             =  -1.1450191569906E-01
(PID.TID 0000.0001) %MON dynstat_uvel_mean            =  -1.4845482236090E-05
(PID.TID 0000.0001) %MON dynstat_uvel_sd              =   4.1989484584450E-03
(PID.TID 0000.0001) %MON dynstat_uvel_del2            =   8.9802174015677E-07
(PID.TID 0000.0001) %MON dynstat_vvel_max             =   7.8168313837593E-02
(PID.TID 0000.0001) %MON dynstat_vvel_min             =  -6.6835033284608E-02
(PID.TID 0000.0001) %MON dynstat_vvel_mean            =  -3.0426729503678E-05
(PID.TID 0000.0001) %MON dynstat_vvel_sd              =   1.8296763413460E-03
(PID.TID 0000.0001) %MON dynstat_vvel_del2            =   9.2795477780886E-07
(PID.TID 0000.0001) %MON dynstat_wvel_max             =   1.9489789619467E-04
(PID.TID 0000.0001) %MON dynstat_wvel_min             =  -1.0265922359065E-04
(PID.TID 0000.0001) %MON dynstat_wvel_mean            =   2.0173372340958E-07
(PID.TID 0000.0001) %MON dynstat_wvel_sd              =   2.0319680637940E-06
(PID.TID 0000.0001) %MON dynstat_wvel_del2            =   5.7648732217261E-09
(PID.TID 0000.0001) %MON dynstat_theta_max            =   1.6580230227699E+01
(PID.TID 0000.0001) %MON dynstat_theta_min            =   4.1845357229864E+00
(PID.TID 0000.0001) %MON dynstat_theta_mean           =   8.3857173870395E+00
(PID.TID 0000.0001) %MON dynstat_theta_sd             =   3.8617842106257E+00
(PID.TID 0000.0001) %MON dynstat_theta_del2           =   6.0349692020098E-07
(PID.TID 0000.0001) %MON dynstat_salt_max             =   3.4476106071707E+01
(PID.TID 0000.0001) %MON dynstat_salt_min             =   3.3629679594954E+01
(PID.TID 0000.0001) %MON dynstat_salt_mean            =   3.4127682172172E+01
(PID.TID 0000.0001) %MON dynstat_salt_sd              =   2.8356711721945E-01
(PID.TID 0000.0001) %MON dynstat_salt_del2            =   2.2934208441803E-08
(PID.TID 0000.0001) %MON trAdv_CFL_u_max              =   3.4186838409017E-03
(PID.TID 0000.0001) %MON trAdv_CFL_v_max              =   2.8560693605493E-03
(PID.TID 0000.0001) %MON trAdv_CFL_w_max              =   4.2245027569851E-03
(PID.TID 0000.0001) %MON advcfl_uvel_max              =   3.4494589621387E-03
(PID.TID 0000.0001) %MON advcfl_vvel_max              =   2.0036735363689E-03
(PID.TID 0000.0001) %MON advcfl_wvel_max              =   4.5361132080459E-03
(PID.TID 0000.0001) %MON advcfl_W_hf_max              =   4.8196202835488E-03
(PID.TID 0000.0001) %MON pe_b_mean                    =   1.7076291085891E-08
(PID.TID 0000.0001) %MON ke_max                       =   7.2295232803274E-03
(PID.TID 0000.0001) %MON ke_mean                      =   1.0475885374741E-05
(PID.TID 0000.0001) %MON ke_vol                       =   1.0416098804501E+14
(PID.TID 0000.0001) %MON vort_r_min                   =  -3.1885631881282E-05
(PID.TID 0000.0001) %MON vort_r_max                   =   4.9749597243641E-05
(PID.TID 0000.0001) %MON vort_a_mean                  =   6.9456055905738E-04
(PID.TID 0000.0001) %MON vort_a_sd                    =   8.0528504222588E-07
(PID.TID 0000.0001) %MON vort_p_mean                  =   7.0575608364114E-04
(PID.TID 0000.0001) %MON vort_p_sd                    =   1.5175637042479E-04
(PID.TID 0000.0001) %MON surfExpan_theta_mean         =  -7.0895529643982E-12
(PID.TID 0000.0001) %MON surfExpan_salt_mean          =  -2.4244455410182E-21
(PID.TID 0000.0001) // =======================================================
(PID.TID 0000.0001) // End MONITOR dynamic field statistics
(PID.TID 0000.0001) // =======================================================
(PID.TID 0000.0001) // =======================================================
(PID.TID 0000.0001) // Begin OBCS MONITOR field statistics
(PID.TID 0000.0001) // =======================================================
(PID.TID 0000.0001) %MON obc_S_vVel_max               =   2.7706149055828E-04
(PID.TID 0000.0001) %MON obc_S_vVel_min               =  -4.6261244863401E-02
(PID.TID 0000.0001) %MON obc_S_vVel_mean              =   8.9191032113548E-21
(PID.TID 0000.0001) %MON obc_S_vVel_sd                =   2.0736865756239E-03
(PID.TID 0000.0001) %MON obc_S_vVel_Int               =   4.2632564145606E-12
(PID.TID 0000.0001) // =======================================================
(PID.TID 0000.0001) // End OBCS MONITOR field statistics
(PID.TID 0000.0001) // =======================================================
 EXTERNAL_FIELDS_LOAD,       520 : iP,iLd,i0,i1=   52   53   52   53 ; Wght=  0.5000000000  0.5000000000
 cg2d: Sum(rhs),rhsMax =   6.18172180111287E-13  1.91194455082338E-02
 EXTERNAL_FIELDS_LOAD,       521 : iP,iLd,i0,i1=   52   53   52   53 ; Wght=  0.4000000000  0.6000000000
 cg2d: Sum(rhs),rhsMax =   6.53699316899292E-13  1.90212525746438E-02
 EXTERNAL_FIELDS_LOAD,       522 : iP,iLd,i0,i1=   52   53   52   53 ; Wght=  0.3000000000  0.7000000000
 cg2d: Sum(rhs),rhsMax =   4.68958205601666E-13  1.89127019951144E-02
 EXTERNAL_FIELDS_LOAD,       523 : iP,iLd,i0,i1=   52   53   52   53 ; Wght=  0.2000000000  0.8000000000
 cg2d: Sum(rhs),rhsMax =   6.44817532702291E-13  1.87947195349397E-02
 EXTERNAL_FIELDS_LOAD,       524 : iP,iLd,i0,i1=   52   53   52   53 ; Wght=  0.1000000000  0.9000000000
 cg2d: Sum(rhs),rhsMax =   7.24753590475302E-13  1.86682318646693E-02
 EXTERNAL_FIELDS_LOAD,       525 : iP,iLd,i0,i1=   52   53   53   54 ; Wght=  1.0000000000  0.0000000000
 EXTERNAL_FIELDS_LOAD, it=       525 : Reading new data, i0,i1=   53   54 (prev=   52   53 )
(PID.TID 0000.0001)  MDS_READ_FIELD: opening global file: ../input/merid_halfgauss2p5hr_240x180.bin
(PID.TID 0000.0001)  MDS_READ_FIELD: opening global file: ../input/merid_halfgauss2p5hr_240x180.bin
 cg2d: Sum(rhs),rhsMax =   8.43769498715119E-13  1.85341592386806E-02
 EXTERNAL_FIELDS_LOAD,       526 : iP,iLd,i0,i1=   53   54   53   54 ; Wght=  0.9000000000  0.1000000000
 cg2d: Sum(rhs),rhsMax =   7.30082660993503E-13  1.83934088299217E-02
 EXTERNAL_FIELDS_LOAD,       527 : iP,iLd,i0,i1=   53   54   53   54 ; Wght=  0.8000000000  0.2000000000
 cg2d: Sum(rhs),rhsMax =   5.82645043323282E-13  1.82468687522410E-02
 EXTERNAL_FIELDS_LOAD,       528 : iP,iLd,i0,i1=   53   54   53   54 ; Wght=  0.7000000000  0.3000000000
 cg2d: Sum(rhs),rhsMax =   5.48894263374677E-13  1.80954027854524E-02
 EXTERNAL_FIELDS_LOAD,       529 : iP,iLd,i0,i1=   53   54   53   54 ; Wght=  0.6000000000  0.4000000000
 cg2d: Sum(rhs),rhsMax =   3.87245790989255E-13  1.79398458008583E-02
 EXTERNAL_FIELDS_LOAD,       530 : iP,iLd,i0,i1=   53   54   53   54 ; Wght=  0.5000000000  0.5000000000
 cg2d: Sum(rhs),rhsMax =   6.37712105344690E-13  1.77809998771029E-02
 EXTERNAL_FIELDS_LOAD,       531 : iP,iLd,i0,i1=   53   54   53   54 ; Wght=  0.4000000000  0.6000000000
 cg2d: Sum(rhs),rhsMax =   8.47322212393919E-13  1.76196310783676E-02
 EXTERNAL_FIELDS_LOAD,       532 : iP,iLd,i0,i1=   53   54   53   54 ; Wght=  0.3000000000  0.7000000000
 cg2d: Sum(rhs),rhsMax =   8.63309423948522E-13  1.76752295256734E-02
 EXTERNAL_FIELDS_LOAD,       533 : iP,iLd,i0,i1=   53   54   53   54 ; Wght=  0.2000000000  0.8000000000
 cg2d: Sum(rhs),rhsMax =   7.24753590475302E-13  1.78897428040898E-02
 EXTERNAL_FIELDS_LOAD,       534 : iP,iLd,i0,i1=   53   54   53   54 ; Wght=  0.1000000000  0.9000000000
 cg2d: Sum(rhs),rhsMax =   7.97584220890712E-13  1.80934345951512E-02
 EXTERNAL_FIELDS_LOAD,       535 : iP,iLd,i0,i1=   53   54   54   55 ; Wght=  1.0000000000  0.0000000000
 EXTERNAL_FIELDS_LOAD, it=       535 : Reading new data, i0,i1=   54   55 (prev=   53   54 )
(PID.TID 0000.0001)  MDS_READ_FIELD: opening global file: ../input/merid_halfgauss2p5hr_240x180.bin
(PID.TID 0000.0001)  MDS_READ_FIELD: opening global file: ../input/merid_halfgauss2p5hr_240x180.bin
 cg2d: Sum(rhs),rhsMax =   6.19060358530987E-13  1.82850741676373E-02
 EXTERNAL_FIELDS_LOAD,       536 : iP,iLd,i0,i1=   54   55   54   55 ; Wght=  0.9000000000  0.1000000000
 cg2d: Sum(rhs),rhsMax =   6.63469279515994E-13  1.84691247660499E-02
 EXTERNAL_FIELDS_LOAD,       537 : iP,iLd,i0,i1=   54   55   54   55 ; Wght=  0.8000000000  0.2000000000
 cg2d: Sum(rhs),rhsMax =   6.90114632106997E-13  1.86914175425606E-02
 EXTERNAL_FIELDS_LOAD,       538 : iP,iLd,i0,i1=   54   55   54   55 ; Wght=  0.7000000000  0.3000000000
 cg2d: Sum(rhs),rhsMax =   5.95079541199084E-13  1.88936600879087E-02
 EXTERNAL_FIELDS_LOAD,       539 : iP,iLd,i0,i1=   54   55   54   55 ; Wght=  0.6000000000  0.4000000000
 cg2d: Sum(rhs),rhsMax =   7.05213665241899E-13  1.90748654417729E-02
(PID.TID 0000.0001)      cg2d_init_res =   6.36501717797017E-01
(PID.TID 0000.0001)      cg2d_iters(min,last) =      -1      32
(PID.TID 0000.0001)      cg2d_last_res =   6.89791055880335E-08
(PID.TID 0000.0001) // =======================================================
(PID.TID 0000.0001) // Begin MONITOR dynamic field statistics
(PID.TID 0000.0001) // =======================================================
(PID.TID 0000.0001) %MON time_tsnumber                =                   540
(PID.TID 0000.0001) %MON time_secondsf                =   3.2400000000000E+04
(PID.TID 0000.0001) %MON dynstat_eta_max              =   1.7269428861032E-02
(PID.TID 0000.0001) %MON dynstat_eta_min              =  -1.4744134768245E-02
(PID.TID 0000.0001) %MON dynstat_eta_mean             =  -3.4912015790662E-19
(PID.TID 0000.0001) %MON dynstat_eta_sd               =   1.5869159250243E-03
(PID.TID 0000.0001) %MON dynstat_eta_del2             =   5.9774052819530E-07
(PID.TID 0000.0001) %MON dynstat_uvel_max             =   4.8842938254304E-02
(PID.TID 0000.0001) %MON dynstat_uvel_min             =  -1.0246176128205E-01
(PID.TID 0000.0001) %MON dynstat_uvel_mean            =  -2.0039197581246E-05
(PID.TID 0000.0001) %MON dynstat_uvel_sd              =   4.1312103523127E-03
(PID.TID 0000.0001) %MON dynstat_uvel_del2            =   8.8149706037485E-07
(PID.TID 0000.0001) %MON dynstat_vvel_max             =   1.0761817724969E-01
(PID.TID 0000.0001) %MON dynstat_vvel_min             =  -2.7280147129004E-02
(PID.TID 0000.0001) %MON dynstat_vvel_mean            =   1.4999373655243E-05
(PID.TID 0000.0001) %MON dynstat_vvel_sd              =   1.9380581360811E-03
(PID.TID 0000.0001) %MON dynstat_vvel_del2            =   9.0150923130352E-07
(PID.TID 0000.0001) %MON dynstat_wvel_max             =   2.6163578776756E-04
(PID.TID 0000.0001) %MON dynstat_wvel_min             =  -8.5744812956169E-05
(PID.TID 0000.0001) %MON dynstat_wvel_mean            =  -9.9144217236527E-08
(PID.TID 0000.0001) %MON dynstat_wvel_sd              =   2.0305280861458E-06
(PID.TID 0000.0001) %MON dynstat_wvel_del2            =   5.7345954680546E-09
(PID.TID 0000.0001) %MON dynstat_theta_max            =   1.6580137229005E+01
(PID.TID 0000.0001) %MON dynstat_theta_min            =   4.1845275080511E+00
(PID.TID 0000.0001) %MON dynstat_theta_mean           =   8.3857164100628E+00
(PID.TID 0000.0001) %MON dynstat_theta_sd             =   3.8617820509638E+00
(PID.TID 0000.0001) %MON dynstat_theta_del2           =   5.8439606170940E-07
(PID.TID 0000.0001) %MON dynstat_salt_max             =   3.4476106909015E+01
(PID.TID 0000.0001) %MON dynstat_salt_min             =   3.3629735380040E+01
(PID.TID 0000.0001) %MON dynstat_salt_mean            =   3.4127682234885E+01
(PID.TID 0000.0001) %MON dynstat_salt_sd              =   2.8356701817914E-01
(PID.TID 0000.0001) %MON dynstat_salt_del2            =   2.2540698157970E-08
(PID.TID 0000.0001) %MON trAdv_CFL_u_max              =   3.1482153010752E-03
(PID.TID 0000.0001) %MON trAdv_CFL_v_max              =   3.4110797693862E-03
(PID.TID 0000.0001) %MON trAdv_CFL_w_max              =   5.1628005158005E-03
(PID.TID 0000.0001) %MON advcfl_uvel_max              =   3.0867399778691E-03
(PID.TID 0000.0001) %MON advcfl_vvel_max              =   2.7585562896427E-03
(PID.TID 0000.0001) %MON advcfl_wvel_max              =   5.5016744571826E-03
(PID.TID 0000.0001) %MON advcfl_W_hf_max              =   5.8455291107565E-03
(PID.TID 0000.0001) %MON pe_b_mean                    =   1.8862330686151E-08
(PID.TID 0000.0001) %MON ke_max                       =   6.5183929160733E-03
(PID.TID 0000.0001) %MON ke_mean                      =   1.0406166178056E-05
(PID.TID 0000.0001) %MON ke_vol                       =   1.0416098804501E+14
(PID.TID 0000.0001) %MON vort_r_min                   =  -4.3428337138939E-05
(PID.TID 0000.0001) %MON vort_r_max                   =   6.6973375972384E-05
(PID.TID 0000.0001) %MON vort_a_mean                  =   6.9456055905738E-04
(PID.TID 0000.0001) %MON vort_a_sd                    =   8.0901983881222E-07
(PID.TID 0000.0001) %MON vort_p_mean                  =   7.0575608364114E-04
(PID.TID 0000.0001) %MON vort_p_sd                    =   1.5175858850649E-04
(PID.TID 0000.0001) %MON surfExpan_theta_mean         =  -9.8239394474592E-12
(PID.TID 0000.0001) %MON surfExpan_salt_mean          =  -8.4626872658182E-22
(PID.TID 0000.0001) // =======================================================
(PID.TID 0000.0001) // End MONITOR dynamic field statistics
(PID.TID 0000.0001) // =======================================================
(PID.TID 0000.0001) // =======================================================
(PID.TID 0000.0001) // Begin OBCS MONITOR field statistics
(PID.TID 0000.0001) // =======================================================
(PID.TID 0000.0001) %MON obc_S_vVel_max               =   2.4124905625705E-02
(PID.TID 0000.0001) %MON obc_S_vVel_min               =  -1.2684539087350E-04
(PID.TID 0000.0001) %MON obc_S_vVel_mean              =  -1.1416452110534E-20
(PID.TID 0000.0001) %MON obc_S_vVel_sd                =   1.0799907058924E-03
(PID.TID 0000.0001) %MON obc_S_vVel_Int               =  -5.4569682106376E-12
(PID.TID 0000.0001) // =======================================================
(PID.TID 0000.0001) // End OBCS MONITOR field statistics
(PID.TID 0000.0001) // =======================================================
 EXTERNAL_FIELDS_LOAD,       540 : iP,iLd,i0,i1=   54   55   54   55 ; Wght=  0.5000000000  0.5000000000
 cg2d: Sum(rhs),rhsMax =   5.87974113841483E-13  1.92341534905695E-02
 EXTERNAL_FIELDS_LOAD,       541 : iP,iLd,i0,i1=   54   55   54   55 ; Wght=  0.4000000000  0.6000000000
 cg2d: Sum(rhs),rhsMax =   5.12478948166972E-13  1.93707569378043E-02
 EXTERNAL_FIELDS_LOAD,       542 : iP,iLd,i0,i1=   54   55   54   55 ; Wght=  0.3000000000  0.7000000000
 cg2d: Sum(rhs),rhsMax =   6.67021993194794E-13  1.94840258775224E-02
 EXTERNAL_FIELDS_LOAD,       543 : iP,iLd,i0,i1=   54   55   54   55 ; Wght=  0.2000000000  0.8000000000
 cg2d: Sum(rhs),rhsMax =   5.35571587079176E-13  1.95734309120870E-02
 EXTERNAL_FIELDS_LOAD,       544 : iP,iLd,i0,i1=   54   55   54   55 ; Wght=  0.1000000000  0.9000000000
 cg2d: Sum(rhs),rhsMax =   5.77315972805081E-13  1.96385647815389E-02
 EXTERNAL_FIELDS_LOAD,       545 : iP,iLd,i0,i1=   54   55   55   56 ; Wght=  1.0000000000  0.0000000000
 EXTERNAL_FIELDS_LOAD, it=       545 : Reading new data, i0,i1=   55   56 (prev=   54   55 )
(PID.TID 0000.0001)  MDS_READ_FIELD: opening global file: ../input/merid_halfgauss2p5hr_240x180.bin
(PID.TID 0000.0001)  MDS_READ_FIELD: opening global file: ../input/merid_halfgauss2p5hr_240x180.bin
 cg2d: Sum(rhs),rhsMax =   5.44897460486027E-13  1.96791424986428E-02
 EXTERNAL_FIELDS_LOAD,       546 : iP,iLd,i0,i1=   55   56   55   56 ; Wght=  0.9000000000  0.1000000000
 cg2d: Sum(rhs),rhsMax =   5.87085935421783E-13  1.96950000108546E-02
 EXTERNAL_FIELDS_LOAD,       547 : iP,iLd,i0,i1=   55   56   55   56 ; Wght=  0.8000000000  0.2000000000
 cg2d: Sum(rhs),rhsMax =   7.01216862353249E-13  1.96975196544323E-02
 EXTERNAL_FIELDS_LOAD,       548 : iP,iLd,i0,i1=   55   56   55   56 ; Wght=  0.7000000000  0.3000000000
 cg2d: Sum(rhs),rhsMax =   6.56807941368243E-13  1.97138177789722E-02
 EXTERNAL_FIELDS_LOAD,       549 : iP,iLd,i0,i1=   55   56   55   56 ; Wght=  0.6000000000  0.4000000000
 cg2d: Sum(rhs),rhsMax =   7.67830243830758E-13  1.97071806941920E-02
 EXTERNAL_FIELDS_LOAD,       550 : iP,iLd,i0,i1=   55   56   55   56 ; Wght=  0.5000000000  0.5000000000
 cg2d: Sum(rhs),rhsMax =   7.66053886991358E-13  1.96776591673134E-02
 EXTERNAL_FIELDS_LOAD,       551 : iP,iLd,i0,i1=   55   56   55   56 ; Wght=  0.4000000000  0.6000000000
 cg2d: Sum(rhs),rhsMax =   4.63629135083465E-13  1.96554836227863E-02
 EXTERNAL_FIELDS_LOAD,       552 : iP,iLd,i0,i1=   55   56   55   56 ; Wght=  0.3000000000  0.7000000000
 cg2d: Sum(rhs),rhsMax =   3.74589248508528E-13  1.97892612869892E-02
 EXTERNAL_FIELDS_LOAD,       553 : iP,iLd,i0,i1=   55   56   55   56 ; Wght=  0.2000000000  0.8000000000
 cg2d: Sum(rhs),rhsMax =   5.47117906535277E-13  1.98987896304491E-02
 EXTERNAL_FIELDS_LOAD,       554 : iP,iLd,i0,i1=   55   56   55   56 ; Wght=  0.1000000000  0.9000000000
 cg2d: Sum(rhs),rhsMax =   5.76427794385381E-13  1.99833660779614E-02
 EXTERNAL_FIELDS_LOAD,       555 : iP,iLd,i0,i1=   55   56   56   57 ; Wght=  1.0000000000  0.0000000000
 EXTERNAL_FIELDS_LOAD, it=       555 : Reading new data, i0,i1=   56   57 (prev=   55   56 )
(PID.TID 0000.0001)  MDS_READ_FIELD: opening global file: ../input/merid_halfgauss2p5hr_240x180.bin
(PID.TID 0000.0001)  MDS_READ_FIELD: opening global file: ../input/merid_halfgauss2p5hr_240x180.bin
 cg2d: Sum(rhs),rhsMax =   5.54223333892878E-13  2.00423594690376E-02
 EXTERNAL_FIELDS_LOAD,       556 : iP,iLd,i0,i1=   56   57   56   57 ; Wght=  0.9000000000  0.1000000000
 cg2d: Sum(rhs),rhsMax =   4.54303261676614E-13  2.01191790851804E-02
 EXTERNAL_FIELDS_LOAD,       557 : iP,iLd,i0,i1=   56   57   56   57 ; Wght=  0.8000000000  0.2000000000
 cg2d: Sum(rhs),rhsMax =   6.67021993194794E-13  2.02048727847905E-02
 EXTERNAL_FIELDS_LOAD,       558 : iP,iLd,i0,i1=   56   57   56   57 ; Wght=  0.7000000000  0.3000000000
 cg2d: Sum(rhs),rhsMax =   6.43263220467816E-13  2.02629453524324E-02
 EXTERNAL_FIELDS_LOAD,       559 : iP,iLd,i0,i1=   56   57   56   57 ; Wght=  0.6000000000  0.4000000000
 cg2d: Sum(rhs),rhsMax =   8.21176460163997E-13  2.02927496860441E-02
(PID.TID 0000.0001)      cg2d_init_res =   5.17814785352314E-01
(PID.TID 0000.0001)      cg2d_iters(min,last) =      -1      31
(PID.TID 0000.0001)      cg2d_last_res =   9.97421994092922E-08
(PID.TID 0000.0001) // =======================================================
(PID.TID 0000.0001) // Begin MONITOR dynamic field statistics
(PID.TID 0000.0001) // =======================================================
(PID.TID 0000.0001) %MON time_tsnumber                =                   560
(PID.TID 0000.0001) %MON time_secondsf                =   3.3600000000000E+04
(PID.TID 0000.0001) %MON dynstat_eta_max              =   1.8382855370192E-02
(PID.TID 0000.0001) %MON dynstat_eta_min              =  -1.3194795775105E-02
(PID.TID 0000.0001) %MON dynstat_eta_mean             =  -2.8354576766040E-19
(PID.TID 0000.0001) %MON dynstat_eta_sd               =   1.7502888942016E-03
(PID.TID 0000.0001) %MON dynstat_eta_del2             =   6.6317293364119E-07
(PID.TID 0000.0001) %MON dynstat_uvel_max             =   6.9870887476738E-02
(PID.TID 0000.0001) %MON dynstat_uvel_min             =  -6.2362216930469E-02
(PID.TID 0000.0001) %MON dynstat_uvel_mean            =   9.8069460585088E-06
(PID.TID 0000.0001) %MON dynstat_uvel_sd              =   1.4028920844211E-03
(PID.TID 0000.0001) %MON dynstat_uvel_del2            =   8.6226910057108E-07
(PID.TID 0000.0001) %MON dynstat_vvel_max             =   1.3054359077242E-01
(PID.TID 0000.0001) %MON dynstat_vvel_min             =  -3.0863826560174E-02
(PID.TID 0000.0001) %MON dynstat_vvel_mean            =   2.8889150863130E-05
(PID.TID 0000.0001) %MON dynstat_vvel_sd              =   4.3328938260342E-03
(PID.TID 0000.0001) %MON dynstat_vvel_del2            =   9.1258876454600E-07
(PID.TID 0000.0001) %MON dynstat_wvel_max             =   3.0216362612154E-04
(PID.TID 0000.0001) %MON dynstat_wvel_min             =  -1.2090214746345E-04
(PID.TID 0000.0001) %MON dynstat_wvel_mean            =  -3.3572725053077E-07
(PID.TID 0000.0001) %MON dynstat_wvel_sd              =   2.1310137438202E-06
(PID.TID 0000.0001) %MON dynstat_wvel_del2            =   6.0272612316829E-09
(PID.TID 0000.0001) %MON dynstat_theta_max            =   1.6580089331361E+01
(PID.TID 0000.0001) %MON dynstat_theta_min            =   4.1845236778999E+00
(PID.TID 0000.0001) %MON dynstat_theta_mean           =   8.3857214299363E+00
(PID.TID 0000.0001) %MON dynstat_theta_sd             =   3.8617847224291E+00
(PID.TID 0000.0001) %MON dynstat_theta_del2           =   5.6308397534325E-07
(PID.TID 0000.0001) %MON dynstat_salt_max             =   3.4476107299405E+01
(PID.TID 0000.0001) %MON dynstat_salt_min             =   3.3629780439107E+01
(PID.TID 0000.0001) %MON dynstat_salt_mean            =   3.4127681931767E+01
(PID.TID 0000.0001) %MON dynstat_salt_sd              =   2.8356712342788E-01
(PID.TID 0000.0001) %MON dynstat_salt_del2            =   2.2084584815419E-08
(PID.TID 0000.0001) %MON trAdv_CFL_u_max              =   2.0684545155499E-03
(PID.TID 0000.0001) %MON trAdv_CFL_v_max              =   3.7854535949919E-03
(PID.TID 0000.0001) %MON trAdv_CFL_w_max              =   5.6807135495971E-03
(PID.TID 0000.0001) %MON advcfl_uvel_max              =   2.1049146429364E-03
(PID.TID 0000.0001) %MON advcfl_vvel_max              =   3.3461990585689E-03
(PID.TID 0000.0001) %MON advcfl_wvel_max              =   6.0699749484668E-03
(PID.TID 0000.0001) %MON advcfl_W_hf_max              =   6.4493483827460E-03
(PID.TID 0000.0001) %MON pe_b_mean                    =   2.2946000142369E-08
(PID.TID 0000.0001) %MON ke_max                       =   6.0715264656350E-03
(PID.TID 0000.0001) %MON ke_mean                      =   1.0338238375260E-05
(PID.TID 0000.0001) %MON ke_vol                       =   1.0416098804501E+14
(PID.TID 0000.0001) %MON vort_r_min                   =  -4.8590975548730E-05
(PID.TID 0000.0001) %MON vort_r_max                   =   8.5142544928707E-05
(PID.TID 0000.0001) %MON vort_a_mean                  =   6.9456055905738E-04
(PID.TID 0000.0001) %MON vort_a_sd                    =   7.9455335046970E-07
(PID.TID 0000.0001) %MON vort_p_mean                  =   7.0575608364114E-04
(PID.TID 0000.0001) %MON vort_p_sd                    =   1.5175613471097E-04
(PID.TID 0000.0001) %MON surfExpan_theta_mean         =  -2.2909830642174E-12
(PID.TID 0000.0001) %MON surfExpan_salt_mean          =   1.2579670260000E-22
(PID.TID 0000.0001) // =======================================================
(PID.TID 0000.0001) // End MONITOR dynamic field statistics
(PID.TID 0000.0001) // =======================================================
(PID.TID 0000.0001) // =======================================================
(PID.TID 0000.0001) // Begin OBCS MONITOR field statistics
(PID.TID 0000.0001) // =======================================================
(PID.TID 0000.0001) %MON obc_S_vVel_max               =   7.8190906443090E-02
(PID.TID 0000.0001) %MON obc_S_vVel_min               =  -3.3436192038585E-04
(PID.TID 0000.0001) %MON obc_S_vVel_mean              =   2.7589759267124E-20
(PID.TID 0000.0001) %MON obc_S_vVel_sd                =   3.5042238701493E-03
(PID.TID 0000.0001) %MON obc_S_vVel_Int               =   1.3187673175707E-11
(PID.TID 0000.0001) // =======================================================
(PID.TID 0000.0001) // End OBCS MONITOR field statistics
(PID.TID 0000.0001) // =======================================================
 EXTERNAL_FIELDS_LOAD,       560 : iP,iLd,i0,i1=   56   57   56   57 ; Wght=  0.5000000000  0.5000000000
 cg2d: Sum(rhs),rhsMax =   6.57141008275630E-13  2.02937400464721E-02
 EXTERNAL_FIELDS_LOAD,       561 : iP,iLd,i0,i1=   56   57   56   57 ; Wght=  0.4000000000  0.6000000000
 cg2d: Sum(rhs),rhsMax =   5.64187585538889E-13  2.03273255449469E-02
 EXTERNAL_FIELDS_LOAD,       562 : iP,iLd,i0,i1=   56   57   56   57 ; Wght=  0.3000000000  0.7000000000
 cg2d: Sum(rhs),rhsMax =   5.66907631949221E-13  2.03488829253394E-02
 EXTERNAL_FIELDS_LOAD,       563 : iP,iLd,i0,i1=   56   57   56   57 ; Wght=  0.2000000000  0.8000000000
 cg2d: Sum(rhs),rhsMax =   5.20472553944273E-13  2.03403540595518E-02
 EXTERNAL_FIELDS_LOAD,       564 : iP,iLd,i0,i1=   56   57   56   57 ; Wght=  0.1000000000  0.9000000000
 cg2d: Sum(rhs),rhsMax =   6.47371045658929E-13  2.03011988668499E-02
 EXTERNAL_FIELDS_LOAD,       565 : iP,iLd,i0,i1=   56   57   57   58 ; Wght=  1.0000000000  0.0000000000
 EXTERNAL_FIELDS_LOAD, it=       565 : Reading new data, i0,i1=   57   58 (prev=   56   57 )
(PID.TID 0000.0001)  MDS_READ_FIELD: opening global file: ../input/merid_halfgauss2p5hr_240x180.bin
(PID.TID 0000.0001)  MDS_READ_FIELD: opening global file: ../input/merid_halfgauss2p5hr_240x180.bin
 cg2d: Sum(rhs),rhsMax =   8.12017120210839E-13  2.02310055811545E-02
 EXTERNAL_FIELDS_LOAD,       566 : iP,iLd,i0,i1=   57   58   57   58 ; Wght=  0.9000000000  0.1000000000
 cg2d: Sum(rhs),rhsMax =   6.39266417579165E-13  2.01294951340451E-02
 EXTERNAL_FIELDS_LOAD,       567 : iP,iLd,i0,i1=   57   58   57   58 ; Wght=  0.8000000000  0.2000000000
 cg2d: Sum(rhs),rhsMax =   6.87117029940509E-13  1.99965245465564E-02
 EXTERNAL_FIELDS_LOAD,       568 : iP,iLd,i0,i1=   57   58   57   58 ; Wght=  0.7000000000  0.3000000000
 cg2d: Sum(rhs),rhsMax =   7.75157715793284E-13  1.98915389982972E-02
 EXTERNAL_FIELDS_LOAD,       569 : iP,iLd,i0,i1=   57   58   57   58 ; Wght=  0.6000000000  0.4000000000
 cg2d: Sum(rhs),rhsMax =   8.53539461331820E-13  1.97689162141422E-02
 EXTERNAL_FIELDS_LOAD,       570 : iP,iLd,i0,i1=   57   58   57   58 ; Wght=  0.5000000000  0.5000000000
 cg2d: Sum(rhs),rhsMax =   7.93809462606987E-13  1.96157428983774E-02
 EXTERNAL_FIELDS_LOAD,       571 : iP,iLd,i0,i1=   57   58   57   58 ; Wght=  0.4000000000  0.6000000000
 cg2d: Sum(rhs),rhsMax =   8.30224777814692E-13  1.94321051326349E-02
 EXTERNAL_FIELDS_LOAD,       572 : iP,iLd,i0,i1=   57   58   57   58 ; Wght=  0.3000000000  0.7000000000
 cg2d: Sum(rhs),rhsMax =   9.02611319020252E-13  1.92182261679902E-02
 EXTERNAL_FIELDS_LOAD,       573 : iP,iLd,i0,i1=   57   58   57   58 ; Wght=  0.2000000000  0.8000000000
 cg2d: Sum(rhs),rhsMax =   9.92539384014890E-13  1.89744663671753E-02
 EXTERNAL_FIELDS_LOAD,       574 : iP,iLd,i0,i1=   57   58   57   58 ; Wght=  0.1000000000  0.9000000000
 cg2d: Sum(rhs),rhsMax =   7.54063478325406E-13  1.87013220107222E-02
 EXTERNAL_FIELDS_LOAD,       575 : iP,iLd,i0,i1=   57   58   58   59 ; Wght=  1.0000000000  0.0000000000
 EXTERNAL_FIELDS_LOAD, it=       575 : Reading new data, i0,i1=   58   59 (prev=   57   58 )
(PID.TID 0000.0001)  MDS_READ_FIELD: opening global file: ../input/merid_halfgauss2p5hr_240x180.bin
(PID.TID 0000.0001)  MDS_READ_FIELD: opening global file: ../input/merid_halfgauss2p5hr_240x180.bin
 cg2d: Sum(rhs),rhsMax =   7.36743999141254E-13  1.83994229772369E-02
 EXTERNAL_FIELDS_LOAD,       576 : iP,iLd,i0,i1=   58   59   58   59 ; Wght=  0.9000000000  0.1000000000
 cg2d: Sum(rhs),rhsMax =   4.98934227266545E-13  1.80695293226540E-02
 EXTERNAL_FIELDS_LOAD,       577 : iP,iLd,i0,i1=   58   59   58   59 ; Wght=  0.8000000000  0.2000000000
 cg2d: Sum(rhs),rhsMax =   6.45705711121991E-13  1.77125267975113E-02
 EXTERNAL_FIELDS_LOAD,       578 : iP,iLd,i0,i1=   58   59   58   59 ; Wght=  0.7000000000  0.3000000000
 cg2d: Sum(rhs),rhsMax =   8.24229573481716E-13  1.73294213547409E-02
 EXTERNAL_FIELDS_LOAD,       579 : iP,iLd,i0,i1=   58   59   58   59 ; Wght=  0.6000000000  0.4000000000
 cg2d: Sum(rhs),rhsMax =   7.49622586226906E-13  1.70041469337737E-02
(PID.TID 0000.0001)      cg2d_init_res =   5.22503579096652E-01
(PID.TID 0000.0001)      cg2d_iters(min,last) =      -1      31
(PID.TID 0000.0001)      cg2d_last_res =   7.73136386763736E-08
(PID.TID 0000.0001) // =======================================================
(PID.TID 0000.0001) // Begin MONITOR dynamic field statistics
(PID.TID 0000.0001) // =======================================================
(PID.TID 0000.0001) %MON time_tsnumber                =                   580
(PID.TID 0000.0001) %MON time_secondsf                =   3.4800000000000E+04
(PID.TID 0000.0001) %MON dynstat_eta_max              =   1.5420422118562E-02
(PID.TID 0000.0001) %MON dynstat_eta_min              =  -1.2675322795705E-02
(PID.TID 0000.0001) %MON dynstat_eta_mean             =  -3.5662221580713E-19
(PID.TID 0000.0001) %MON dynstat_eta_sd               =   1.5785077302456E-03
(PID.TID 0000.0001) %MON dynstat_eta_del2             =   6.8763677269014E-07
(PID.TID 0000.0001) %MON dynstat_uvel_max             =   1.0000529748034E-01
(PID.TID 0000.0001) %MON dynstat_uvel_min             =  -2.7725961063111E-02
(PID.TID 0000.0001) %MON dynstat_uvel_mean            =   3.2124886563921E-05
(PID.TID 0000.0001) %MON dynstat_uvel_sd              =   2.3100934294078E-03
(PID.TID 0000.0001) %MON dynstat_uvel_del2            =   8.3857545281333E-07
(PID.TID 0000.0001) %MON dynstat_vvel_max             =   1.4162454241115E-01
(PID.TID 0000.0001) %MON dynstat_vvel_min             =  -3.9206795472924E-02
(PID.TID 0000.0001) %MON dynstat_vvel_mean            =  -4.1701955256854E-06
(PID.TID 0000.0001) %MON dynstat_vvel_sd              =   3.9112250578934E-03
(PID.TID 0000.0001) %MON dynstat_vvel_del2            =   9.5047481104247E-07
(PID.TID 0000.0001) %MON dynstat_wvel_max             =   3.2226123473058E-04
(PID.TID 0000.0001) %MON dynstat_wvel_min             =  -1.9138366811312E-04
(PID.TID 0000.0001) %MON dynstat_wvel_mean            =  -3.5390613574648E-07
(PID.TID 0000.0001) %MON dynstat_wvel_sd              =   2.1631412120757E-06
(PID.TID 0000.0001) %MON dynstat_wvel_del2            =   6.4039310154472E-09
(PID.TID 0000.0001) %MON dynstat_theta_max            =   1.6580069284814E+01
(PID.TID 0000.0001) %MON dynstat_theta_min            =   4.1845250687147E+00
(PID.TID 0000.0001) %MON dynstat_theta_mean           =   8.3857291851723E+00
(PID.TID 0000.0001) %MON dynstat_theta_sd             =   3.8617895174170E+00
(PID.TID 0000.0001) %MON dynstat_theta_del2           =   5.4881450276847E-07
(PID.TID 0000.0001) %MON dynstat_salt_max             =   3.4476107157648E+01
(PID.TID 0000.0001) %MON dynstat_salt_min             =   3.3629800025034E+01
(PID.TID 0000.0001) %MON dynstat_salt_mean            =   3.4127681459579E+01
(PID.TID 0000.0001) %MON dynstat_salt_sd              =   2.8356731729241E-01
(PID.TID 0000.0001) %MON dynstat_salt_del2            =   2.1746135413246E-08
(PID.TID 0000.0001) %MON trAdv_CFL_u_max              =   2.9686674478269E-03
(PID.TID 0000.0001) %MON trAdv_CFL_v_max              =   4.2281400053111E-03
(PID.TID 0000.0001) %MON trAdv_CFL_w_max              =   6.6241596227355E-03
(PID.TID 0000.0001) %MON advcfl_uvel_max              =   3.0127371018102E-03
(PID.TID 0000.0001) %MON advcfl_vvel_max              =   3.6302349865082E-03
(PID.TID 0000.0001) %MON advcfl_wvel_max              =   7.0573326966441E-03
(PID.TID 0000.0001) %MON advcfl_W_hf_max              =   7.4984159901844E-03
(PID.TID 0000.0001) %MON pe_b_mean                    =   1.8662977984847E-08
(PID.TID 0000.0001) %MON ke_max                       =   8.7739102476075E-03
(PID.TID 0000.0001) %MON ke_mean                      =   1.0281321215409E-05
(PID.TID 0000.0001) %MON ke_vol                       =   1.0416098804501E+14
(PID.TID 0000.0001) %MON vort_r_min                   =  -5.3285299141261E-05
(PID.TID 0000.0001) %MON vort_r_max                   =   9.9595375938182E-05
(PID.TID 0000.0001) %MON vort_a_mean                  =   6.9456055905738E-04
(PID.TID 0000.0001) %MON vort_a_sd                    =   7.9251950712136E-07
(PID.TID 0000.0001) %MON vort_p_mean                  =   7.0575608364114E-04
(PID.TID 0000.0001) %MON vort_p_sd                    =   1.5175058967825E-04
(PID.TID 0000.0001) %MON surfExpan_theta_mean         =   2.5849593082562E-12
(PID.TID 0000.0001) %MON surfExpan_salt_mean          =  -3.3107404911545E-21
(PID.TID 0000.0001) // =======================================================
(PID.TID 0000.0001) // End MONITOR dynamic field statistics
(PID.TID 0000.0001) // =======================================================
(PID.TID 0000.0001) // =======================================================
(PID.TID 0000.0001) // Begin OBCS MONITOR field statistics
(PID.TID 0000.0001) // =======================================================
(PID.TID 0000.0001) %MON obc_S_vVel_max               =   8.1125146083062E-02
(PID.TID 0000.0001) %MON obc_S_vVel_min               =  -3.9038321713551E-04
(PID.TID 0000.0001) %MON obc_S_vVel_mean              =   3.8649447249204E-22
(PID.TID 0000.0001) %MON obc_S_vVel_sd                =   3.6372979080848E-03
(PID.TID 0000.0001) %MON obc_S_vVel_Int               =   1.8474111129763E-13
(PID.TID 0000.0001) // =======================================================
(PID.TID 0000.0001) // End OBCS MONITOR field statistics
(PID.TID 0000.0001) // =======================================================
 EXTERNAL_FIELDS_LOAD,       580 : iP,iLd,i0,i1=   58   59   58   59 ; Wght=  0.5000000000  0.5000000000
 cg2d: Sum(rhs),rhsMax =   8.16680056914265E-13  1.67150255146201E-02
 EXTERNAL_FIELDS_LOAD,       581 : iP,iLd,i0,i1=   58   59   58   59 ; Wght=  0.4000000000  0.6000000000
 cg2d: Sum(rhs),rhsMax =   9.10826969402478E-13  1.64085352603326E-02
 EXTERNAL_FIELDS_LOAD,       582 : iP,iLd,i0,i1=   58   59   58   59 ; Wght=  0.3000000000  0.7000000000
 cg2d: Sum(rhs),rhsMax =   9.73887637201187E-13  1.60858423882440E-02
 EXTERNAL_FIELDS_LOAD,       583 : iP,iLd,i0,i1=   58   59   58   59 ; Wght=  0.2000000000  0.8000000000
 cg2d: Sum(rhs),rhsMax =   1.01696429055664E-12  1.57817355792621E-02
 EXTERNAL_FIELDS_LOAD,       584 : iP,iLd,i0,i1=   58   59   58   59 ; Wght=  0.1000000000  0.9000000000
 cg2d: Sum(rhs),rhsMax =   9.06386077303978E-13  1.55096708373516E-02
 EXTERNAL_FIELDS_LOAD,       585 : iP,iLd,i0,i1=   58   59   59   60 ; Wght=  1.0000000000  0.0000000000
 EXTERNAL_FIELDS_LOAD, it=       585 : Reading new data, i0,i1=   59   60 (prev=   58   59 )
(PID.TID 0000.0001)  MDS_READ_FIELD: opening global file: ../input/merid_halfgauss2p5hr_240x180.bin
(PID.TID 0000.0001)  MDS_READ_FIELD: opening global file: ../input/merid_halfgauss2p5hr_240x180.bin
 cg2d: Sum(rhs),rhsMax =   1.00452979268084E-12  1.52219243487028E-02
 EXTERNAL_FIELDS_LOAD,       586 : iP,iLd,i0,i1=   59   60   59   60 ; Wght=  0.9000000000  0.1000000000
 cg2d: Sum(rhs),rhsMax =   9.38360500413182E-13  1.49194305457328E-02
 EXTERNAL_FIELDS_LOAD,       587 : iP,iLd,i0,i1=   59   60   59   60 ; Wght=  0.8000000000  0.2000000000
 cg2d: Sum(rhs),rhsMax =   9.50350909079134E-13  1.46031439954214E-02
 EXTERNAL_FIELDS_LOAD,       588 : iP,iLd,i0,i1=   59   60   59   60 ; Wght=  0.7000000000  0.3000000000
 cg2d: Sum(rhs),rhsMax =   1.14130926931466E-12  1.42740378421374E-02
 EXTERNAL_FIELDS_LOAD,       589 : iP,iLd,i0,i1=   59   60   59   60 ; Wght=  0.6000000000  0.4000000000
 cg2d: Sum(rhs),rhsMax =   1.16795462190566E-12  1.39331022930225E-02
 EXTERNAL_FIELDS_LOAD,       590 : iP,iLd,i0,i1=   59   60   59   60 ; Wght=  0.5000000000  0.5000000000
 cg2d: Sum(rhs),rhsMax =   1.08091313677505E-12  1.35813430917814E-02
 EXTERNAL_FIELDS_LOAD,       591 : iP,iLd,i0,i1=   59   60   59   60 ; Wght=  0.4000000000  0.6000000000
 cg2d: Sum(rhs),rhsMax =   1.18038911978147E-12  1.32968169740160E-02
 EXTERNAL_FIELDS_LOAD,       592 : iP,iLd,i0,i1=   59   60   59   60 ; Wght=  0.3000000000  0.7000000000
 cg2d: Sum(rhs),rhsMax =   1.08002495835535E-12  1.32221000603329E-02
 EXTERNAL_FIELDS_LOAD,       593 : iP,iLd,i0,i1=   59   60   59   60 ; Wght=  0.2000000000  0.8000000000
 cg2d: Sum(rhs),rhsMax =   9.89430759545940E-13  1.31379334788175E-02
 EXTERNAL_FIELDS_LOAD,       594 : iP,iLd,i0,i1=   59   60   59   60 ; Wght=  0.1000000000  0.9000000000
 cg2d: Sum(rhs),rhsMax =   1.07647224467655E-12  1.30440331652375E-02
 EXTERNAL_FIELDS_LOAD,       595 : iP,iLd,i0,i1=   59   60   60    1 ; Wght=  1.0000000000  0.0000000000
 EXTERNAL_FIELDS_LOAD, it=       595 : Reading new data, i0,i1=   60    1 (prev=   59   60 )
(PID.TID 0000.0001)  MDS_READ_FIELD: opening global file: ../input/merid_halfgauss2p5hr_240x180.bin
(PID.TID 0000.0001)  MDS_READ_FIELD: opening global file: ../input/merid_halfgauss2p5hr_240x180.bin
 cg2d: Sum(rhs),rhsMax =   9.97424365323241E-13  1.29401403840059E-02
 EXTERNAL_FIELDS_LOAD,       596 : iP,iLd,i0,i1=   60    1   60    1 ; Wght=  0.9000000000  0.1000000000
 cg2d: Sum(rhs),rhsMax =   1.09334763465085E-12  1.28260227893859E-02
 EXTERNAL_FIELDS_LOAD,       597 : iP,iLd,i0,i1=   60    1   60    1 ; Wght=  0.8000000000  0.2000000000
 cg2d: Sum(rhs),rhsMax =   1.14841469667226E-12  1.27015647888818E-02
 EXTERNAL_FIELDS_LOAD,       598 : iP,iLd,i0,i1=   60    1   60    1 ; Wght=  0.7000000000  0.3000000000
 cg2d: Sum(rhs),rhsMax =   1.33937305690779E-12  1.25666990460037E-02
 EXTERNAL_FIELDS_LOAD,       599 : iP,iLd,i0,i1=   60    1   60    1 ; Wght=  0.6000000000  0.4000000000
 cg2d: Sum(rhs),rhsMax =   1.11999298724186E-12  1.24214135405368E-02
(PID.TID 0000.0001)      cg2d_init_res =   8.59209830077647E-01
(PID.TID 0000.0001)      cg2d_iters(min,last) =      -1      32
(PID.TID 0000.0001)      cg2d_last_res =   7.73067415632066E-08
(PID.TID 0000.0001) // =======================================================
(PID.TID 0000.0001) // Begin MONITOR dynamic field statistics
(PID.TID 0000.0001) // =======================================================
(PID.TID 0000.0001) %MON time_tsnumber                =                   600
(PID.TID 0000.0001) %MON time_secondsf                =   3.6000000000000E+04
(PID.TID 0000.0001) %MON dynstat_eta_max              =   9.7974499726873E-03
(PID.TID 0000.0001) %MON dynstat_eta_min              =  -1.1006629624025E-02
(PID.TID 0000.0001) %MON dynstat_eta_mean             =  -3.5314565238982E-19
(PID.TID 0000.0001) %MON dynstat_eta_sd               =   1.0446428501718E-03
(PID.TID 0000.0001) %MON dynstat_eta_del2             =   6.4131369657329E-07
(PID.TID 0000.0001) %MON dynstat_uvel_max             =   1.2115931881966E-01
(PID.TID 0000.0001) %MON dynstat_uvel_min             =  -3.1845465485908E-02
(PID.TID 0000.0001) %MON dynstat_uvel_mean            =   1.6910387370111E-05
(PID.TID 0000.0001) %MON dynstat_uvel_sd              =   4.4114162581963E-03
(PID.TID 0000.0001) %MON dynstat_uvel_del2            =   8.3899803025158E-07
(PID.TID 0000.0001) %MON dynstat_vvel_max             =   1.3594834481143E-01
(PID.TID 0000.0001) %MON dynstat_vvel_min             =  -5.0020457924589E-02
(PID.TID 0000.0001) %MON dynstat_vvel_mean            =  -4.3321946012307E-05
(PID.TID 0000.0001) %MON dynstat_vvel_sd              =   1.0165003246670E-03
(PID.TID 0000.0001) %MON dynstat_vvel_del2            =   9.6682104050195E-07
(PID.TID 0000.0001) %MON dynstat_wvel_max             =   3.2820372874082E-04
(PID.TID 0000.0001) %MON dynstat_wvel_min             =  -2.3431527658819E-04
(PID.TID 0000.0001) %MON dynstat_wvel_mean            =  -1.4064675053629E-07
(PID.TID 0000.0001) %MON dynstat_wvel_sd              =   2.0695937213066E-06
(PID.TID 0000.0001) %MON dynstat_wvel_del2            =   6.6470034817871E-09
(PID.TID 0000.0001) %MON dynstat_theta_max            =   1.6580048616011E+01
(PID.TID 0000.0001) %MON dynstat_theta_min            =   4.1845287762675E+00
(PID.TID 0000.0001) %MON dynstat_theta_mean           =   8.3857346215386E+00
(PID.TID 0000.0001) %MON dynstat_theta_sd             =   3.8617923581428E+00
(PID.TID 0000.0001) %MON dynstat_theta_del2           =   5.4434961929144E-07
(PID.TID 0000.0001) %MON dynstat_salt_max             =   3.4476106779758E+01
(PID.TID 0000.0001) %MON dynstat_salt_min             =   3.3629791521308E+01
(PID.TID 0000.0001) %MON dynstat_salt_mean            =   3.4127681126490E+01
(PID.TID 0000.0001) %MON dynstat_salt_sd              =   2.8356742709414E-01
(PID.TID 0000.0001) %MON dynstat_salt_del2            =   2.1504197427006E-08
(PID.TID 0000.0001) %MON trAdv_CFL_u_max              =   3.6328853908721E-03
(PID.TID 0000.0001) %MON trAdv_CFL_v_max              =   4.7439737480050E-03
(PID.TID 0000.0001) %MON trAdv_CFL_w_max              =   7.2732436984788E-03
(PID.TID 0000.0001) %MON advcfl_uvel_max              =   3.6500183913737E-03
(PID.TID 0000.0001) %MON advcfl_vvel_max              =   3.4847380919302E-03
(PID.TID 0000.0001) %MON advcfl_wvel_max              =   7.7224406762547E-03
(PID.TID 0000.0001) %MON advcfl_W_hf_max              =   8.2050932185206E-03
(PID.TID 0000.0001) %MON pe_b_mean                    =   8.1737846234541E-09
(PID.TID 0000.0001) %MON ke_max                       =   1.0617124181325E-02
(PID.TID 0000.0001) %MON ke_mean                      =   1.0239821907140E-05
(PID.TID 0000.0001) %MON ke_vol                       =   1.0416098804501E+14
(PID.TID 0000.0001) %MON vort_r_min                   =  -5.6428728082924E-05
(PID.TID 0000.0001) %MON vort_r_max                   =   1.0350259955821E-04
(PID.TID 0000.0001) %MON vort_a_mean                  =   6.9456055905738E-04
(PID.TID 0000.0001) %MON vort_a_sd                    =   8.0674296914860E-07
(PID.TID 0000.0001) %MON vort_p_mean                  =   7.0575608364114E-04
(PID.TID 0000.0001) %MON vort_p_sd                    =   1.5174327805456E-04
(PID.TID 0000.0001) %MON surfExpan_theta_mean         =   5.8872428974638E-13
(PID.TID 0000.0001) %MON surfExpan_salt_mean          =  -4.8317369862273E-21
(PID.TID 0000.0001) // =======================================================
(PID.TID 0000.0001) // End MONITOR dynamic field statistics
(PID.TID 0000.0001) // =======================================================
(PID.TID 0000.0001) // =======================================================
(PID.TID 0000.0001) // Begin OBCS MONITOR field statistics
(PID.TID 0000.0001) // =======================================================
(PID.TID 0000.0001) %MON obc_S_vVel_max               =   3.1446319784782E-02
(PID.TID 0000.0001) %MON obc_S_vVel_min               =  -2.1284736515685E-04
(PID.TID 0000.0001) %MON obc_S_vVel_mean              =  -4.9055067662451E-21
(PID.TID 0000.0001) %MON obc_S_vVel_sd                =   1.4105546661664E-03
(PID.TID 0000.0001) %MON obc_S_vVel_Int               =  -2.3447910280083E-12
(PID.TID 0000.0001) // =======================================================
(PID.TID 0000.0001) // End OBCS MONITOR field statistics
(PID.TID 0000.0001) // =======================================================
(PID.TID 0000.0001) %CHECKPOINT       600 ckptA
(PID.TID 0000.0001)   Seconds in section "ALL                    [THE_MODEL_MAIN]":
(PID.TID 0000.0001)           User time:   437.66734904702753
(PID.TID 0000.0001)         System time:   3.6152770854532719
(PID.TID 0000.0001)     Wall clock time:   474.61895799636841
(PID.TID 0000.0001)          No. starts:           1
(PID.TID 0000.0001)           No. stops:           1
(PID.TID 0000.0001)   Seconds in section "INITIALISE_FIXED       [THE_MODEL_MAIN]":
(PID.TID 0000.0001)           User time:   10.616534094326198
(PID.TID 0000.0001)         System time:  0.12528900522738695
(PID.TID 0000.0001)     Wall clock time:   11.299763917922974
(PID.TID 0000.0001)          No. starts:           1
(PID.TID 0000.0001)           No. stops:           1
(PID.TID 0000.0001)   Seconds in section "THE_MAIN_LOOP          [THE_MODEL_MAIN]":
(PID.TID 0000.0001)           User time:   426.69643402099609
(PID.TID 0000.0001)         System time:   3.4332038909196854
(PID.TID 0000.0001)     Wall clock time:   457.07421302795410
(PID.TID 0000.0001)          No. starts:           1
(PID.TID 0000.0001)           No. stops:           1
(PID.TID 0000.0001)   Seconds in section "INITIALISE_VARIA    [THE_MAIN_LOOP]":
(PID.TID 0000.0001)           User time:   12.096636772155762
(PID.TID 0000.0001)         System time:  0.15318699181079865
(PID.TID 0000.0001)     Wall clock time:   13.483274936676025
(PID.TID 0000.0001)          No. starts:           1
(PID.TID 0000.0001)           No. stops:           1
(PID.TID 0000.0001)   Seconds in section "MAIN LOOP           [THE_MAIN_LOOP]":
(PID.TID 0000.0001)           User time:   414.59976196289062
(PID.TID 0000.0001)         System time:   3.2800138890743256
(PID.TID 0000.0001)     Wall clock time:   443.59092903137207
(PID.TID 0000.0001)          No. starts:           1
(PID.TID 0000.0001)           No. stops:           1
(PID.TID 0000.0001)   Seconds in section "MAIN_DO_LOOP        [THE_MAIN_LOOP]":
(PID.TID 0000.0001)           User time:   414.59805679321289
(PID.TID 0000.0001)         System time:   3.2799240052700043
(PID.TID 0000.0001)     Wall clock time:   443.58919858932495
(PID.TID 0000.0001)          No. starts:         600
(PID.TID 0000.0001)           No. stops:         600
(PID.TID 0000.0001)   Seconds in section "FORWARD_STEP        [MAIN_DO_LOOP]":
(PID.TID 0000.0001)           User time:   414.59488296508789
(PID.TID 0000.0001)         System time:   3.2797378301620483
(PID.TID 0000.0001)     Wall clock time:   443.58563256263733
(PID.TID 0000.0001)          No. starts:         600
(PID.TID 0000.0001)           No. stops:         600
(PID.TID 0000.0001)   Seconds in section "LOAD_FIELDS_DRIVER  [FORWARD_STEP]":
(PID.TID 0000.0001)           User time:  0.11267280578613281
(PID.TID 0000.0001)         System time:   1.8915057182312012E-002
(PID.TID 0000.0001)     Wall clock time:  0.70128417015075684
(PID.TID 0000.0001)          No. starts:         600
(PID.TID 0000.0001)           No. stops:         600
(PID.TID 0000.0001)   Seconds in section "EXTERNAL_FLDS_LOAD [LOAD_FLDS_DRIVER]":
(PID.TID 0000.0001)           User time:  0.10925292968750000
(PID.TID 0000.0001)         System time:   1.8454909324645996E-002
(PID.TID 0000.0001)     Wall clock time:  0.69772005081176758
(PID.TID 0000.0001)          No. starts:         600
(PID.TID 0000.0001)           No. stops:         600
(PID.TID 0000.0001)   Seconds in section "DO_ATMOSPHERIC_PHYS [FORWARD_STEP]":
(PID.TID 0000.0001)           User time:   1.6956329345703125E-003
(PID.TID 0000.0001)         System time:   8.6098909378051758E-005
(PID.TID 0000.0001)     Wall clock time:   1.8031597137451172E-003
(PID.TID 0000.0001)          No. starts:         600
(PID.TID 0000.0001)           No. stops:         600
(PID.TID 0000.0001)   Seconds in section "DO_OCEANIC_PHYS     [FORWARD_STEP]":
(PID.TID 0000.0001)           User time:   5.8136405944824219
(PID.TID 0000.0001)         System time:   2.2069633007049561E-002
(PID.TID 0000.0001)     Wall clock time:   5.8466014862060547
(PID.TID 0000.0001)          No. starts:         600
(PID.TID 0000.0001)           No. stops:         600
(PID.TID 0000.0001)   Seconds in section "THERMODYNAMICS      [FORWARD_STEP]":
(PID.TID 0000.0001)           User time:   48.170494079589844
(PID.TID 0000.0001)         System time:  0.16503435373306274
(PID.TID 0000.0001)     Wall clock time:   48.467164754867554
(PID.TID 0000.0001)          No. starts:         600
(PID.TID 0000.0001)           No. stops:         600
(PID.TID 0000.0001)   Seconds in section "DYNAMICS            [FORWARD_STEP]":
(PID.TID 0000.0001)           User time:   50.939188003540039
(PID.TID 0000.0001)         System time:  0.17870041728019714
(PID.TID 0000.0001)     Wall clock time:   51.225265026092529
(PID.TID 0000.0001)          No. starts:         600
(PID.TID 0000.0001)           No. stops:         600
(PID.TID 0000.0001)   Seconds in section "SOLVE_FOR_PRESSURE  [FORWARD_STEP]":
(PID.TID 0000.0001)           User time:   6.0013103485107422
(PID.TID 0000.0001)         System time:   2.4536192417144775E-002
(PID.TID 0000.0001)     Wall clock time:   6.0517463684082031
(PID.TID 0000.0001)          No. starts:         600
(PID.TID 0000.0001)           No. stops:         600
(PID.TID 0000.0001)   Seconds in section "MOM_CORRECTION_STEP [FORWARD_STEP]":
(PID.TID 0000.0001)           User time:   2.2417812347412109
(PID.TID 0000.0001)         System time:   7.1075856685638428E-003
(PID.TID 0000.0001)     Wall clock time:   2.2592561244964600
(PID.TID 0000.0001)          No. starts:         600
(PID.TID 0000.0001)           No. stops:         600
(PID.TID 0000.0001)   Seconds in section "INTEGR_CONTINUITY   [FORWARD_STEP]":
(PID.TID 0000.0001)           User time:   3.2535438537597656
(PID.TID 0000.0001)         System time:   1.0510593652725220E-002
(PID.TID 0000.0001)     Wall clock time:   3.2677941322326660
(PID.TID 0000.0001)          No. starts:         600
(PID.TID 0000.0001)           No. stops:         600
(PID.TID 0000.0001)   Seconds in section "TRC_CORRECTION_STEP [FORWARD_STEP]":
(PID.TID 0000.0001)           User time:   2.0122528076171875E-003
(PID.TID 0000.0001)         System time:   8.1807374954223633E-005
(PID.TID 0000.0001)     Wall clock time:   2.0642280578613281E-003
(PID.TID 0000.0001)          No. starts:         600
(PID.TID 0000.0001)           No. stops:         600
(PID.TID 0000.0001)   Seconds in section "BLOCKING_EXCHANGES  [FORWARD_STEP]":
(PID.TID 0000.0001)           User time:   11.079954147338867
(PID.TID 0000.0001)         System time:   3.8755506277084351E-002
(PID.TID 0000.0001)     Wall clock time:   11.155991315841675
(PID.TID 0000.0001)          No. starts:         600
(PID.TID 0000.0001)           No. stops:         600
(PID.TID 0000.0001)   Seconds in section "MONITOR             [FORWARD_STEP]":
(PID.TID 0000.0001)           User time:   1.4283771514892578
(PID.TID 0000.0001)         System time:   4.8653781414031982E-003
(PID.TID 0000.0001)     Wall clock time:   1.4358556270599365
(PID.TID 0000.0001)          No. starts:         600
(PID.TID 0000.0001)           No. stops:         600
(PID.TID 0000.0001)   Seconds in section "DO_THE_MODEL_IO     [FORWARD_STEP]":
(PID.TID 0000.0001)           User time:   285.48118782043457
(PID.TID 0000.0001)         System time:   2.5570945143699646
(PID.TID 0000.0001)     Wall clock time:   303.83507061004639
(PID.TID 0000.0001)          No. starts:         600
(PID.TID 0000.0001)           No. stops:         600
(PID.TID 0000.0001)   Seconds in section "DO_WRITE_PICKUP     [FORWARD_STEP]":
(PID.TID 0000.0001)           User time:   4.3741226196289062E-002
(PID.TID 0000.0001)         System time:  0.24411496520042419
(PID.TID 0000.0001)     Wall clock time:   9.3105573654174805
(PID.TID 0000.0001)          No. starts:         600
(PID.TID 0000.0001)           No. stops:         600
(PID.TID 0000.0001) // ======================================================
(PID.TID 0000.0001) // Tile <-> Tile communication statistics
(PID.TID 0000.0001) // ======================================================
(PID.TID 0000.0001) // o Tile number: 000001
(PID.TID 0000.0001) //         No. X exchanges =              0
(PID.TID 0000.0001) //            Max. X spins =              0
(PID.TID 0000.0001) //            Min. X spins =     1000000000
(PID.TID 0000.0001) //          Total. X spins =              0
(PID.TID 0000.0001) //            Avg. X spins =       0.00E+00
(PID.TID 0000.0001) //         No. Y exchanges =              0
(PID.TID 0000.0001) //            Max. Y spins =              0
(PID.TID 0000.0001) //            Min. Y spins =     1000000000
(PID.TID 0000.0001) //          Total. Y spins =              0
(PID.TID 0000.0001) //            Avg. Y spins =       0.00E+00
(PID.TID 0000.0001) // o Tile number: 000002
(PID.TID 0000.0001) //         No. X exchanges =              0
(PID.TID 0000.0001) //            Max. X spins =              0
(PID.TID 0000.0001) //            Min. X spins =     1000000000
(PID.TID 0000.0001) //          Total. X spins =              0
(PID.TID 0000.0001) //            Avg. X spins =       0.00E+00
(PID.TID 0000.0001) //         No. Y exchanges =              0
(PID.TID 0000.0001) //            Max. Y spins =              0
(PID.TID 0000.0001) //            Min. Y spins =     1000000000
(PID.TID 0000.0001) //          Total. Y spins =              0
(PID.TID 0000.0001) //            Avg. Y spins =       0.00E+00
(PID.TID 0000.0001) // o Tile number: 000003
(PID.TID 0000.0001) //         No. X exchanges =              0
(PID.TID 0000.0001) //            Max. X spins =              0
(PID.TID 0000.0001) //            Min. X spins =     1000000000
(PID.TID 0000.0001) //          Total. X spins =              0
(PID.TID 0000.0001) //            Avg. X spins =       0.00E+00
(PID.TID 0000.0001) //         No. Y exchanges =              0
(PID.TID 0000.0001) //            Max. Y spins =              0
(PID.TID 0000.0001) //            Min. Y spins =     1000000000
(PID.TID 0000.0001) //          Total. Y spins =              0
(PID.TID 0000.0001) //            Avg. Y spins =       0.00E+00
(PID.TID 0000.0001) // o Tile number: 000004
(PID.TID 0000.0001) //         No. X exchanges =              0
(PID.TID 0000.0001) //            Max. X spins =              0
(PID.TID 0000.0001) //            Min. X spins =     1000000000
(PID.TID 0000.0001) //          Total. X spins =              0
(PID.TID 0000.0001) //            Avg. X spins =       0.00E+00
(PID.TID 0000.0001) //         No. Y exchanges =              0
(PID.TID 0000.0001) //            Max. Y spins =              0
(PID.TID 0000.0001) //            Min. Y spins =     1000000000
(PID.TID 0000.0001) //          Total. Y spins =              0
(PID.TID 0000.0001) //            Avg. Y spins =       0.00E+00
(PID.TID 0000.0001) // o Tile number: 000005
(PID.TID 0000.0001) //         No. X exchanges =              0
(PID.TID 0000.0001) //            Max. X spins =              0
(PID.TID 0000.0001) //            Min. X spins =     1000000000
(PID.TID 0000.0001) //          Total. X spins =              0
(PID.TID 0000.0001) //            Avg. X spins =       0.00E+00
(PID.TID 0000.0001) //         No. Y exchanges =              0
(PID.TID 0000.0001) //            Max. Y spins =              0
(PID.TID 0000.0001) //            Min. Y spins =     1000000000
(PID.TID 0000.0001) //          Total. Y spins =              0
(PID.TID 0000.0001) //            Avg. Y spins =       0.00E+00
(PID.TID 0000.0001) // o Tile number: 000006
(PID.TID 0000.0001) //         No. X exchanges =              0
(PID.TID 0000.0001) //            Max. X spins =              0
(PID.TID 0000.0001) //            Min. X spins =     1000000000
(PID.TID 0000.0001) //          Total. X spins =              0
(PID.TID 0000.0001) //            Avg. X spins =       0.00E+00
(PID.TID 0000.0001) //         No. Y exchanges =              0
(PID.TID 0000.0001) //            Max. Y spins =              0
(PID.TID 0000.0001) //            Min. Y spins =     1000000000
(PID.TID 0000.0001) //          Total. Y spins =              0
(PID.TID 0000.0001) //            Avg. Y spins =       0.00E+00
(PID.TID 0000.0001) // o Tile number: 000007
(PID.TID 0000.0001) //         No. X exchanges =              0
(PID.TID 0000.0001) //            Max. X spins =              0
(PID.TID 0000.0001) //            Min. X spins =     1000000000
(PID.TID 0000.0001) //          Total. X spins =              0
(PID.TID 0000.0001) //            Avg. X spins =       0.00E+00
(PID.TID 0000.0001) //         No. Y exchanges =              0
(PID.TID 0000.0001) //            Max. Y spins =              0
(PID.TID 0000.0001) //            Min. Y spins =     1000000000
(PID.TID 0000.0001) //          Total. Y spins =              0
(PID.TID 0000.0001) //            Avg. Y spins =       0.00E+00
(PID.TID 0000.0001) // o Tile number: 000008
(PID.TID 0000.0001) //         No. X exchanges =              0
(PID.TID 0000.0001) //            Max. X spins =              0
(PID.TID 0000.0001) //            Min. X spins =     1000000000
(PID.TID 0000.0001) //          Total. X spins =              0
(PID.TID 0000.0001) //            Avg. X spins =       0.00E+00
(PID.TID 0000.0001) //         No. Y exchanges =              0
(PID.TID 0000.0001) //            Max. Y spins =              0
(PID.TID 0000.0001) //            Min. Y spins =     1000000000
(PID.TID 0000.0001) //          Total. Y spins =              0
(PID.TID 0000.0001) //            Avg. Y spins =       0.00E+00
(PID.TID 0000.0001) // o Tile number: 000009
(PID.TID 0000.0001) //         No. X exchanges =              0
(PID.TID 0000.0001) //            Max. X spins =              0
(PID.TID 0000.0001) //            Min. X spins =     1000000000
(PID.TID 0000.0001) //          Total. X spins =              0
(PID.TID 0000.0001) //            Avg. X spins =       0.00E+00
(PID.TID 0000.0001) //         No. Y exchanges =              0
(PID.TID 0000.0001) //            Max. Y spins =              0
(PID.TID 0000.0001) //            Min. Y spins =     1000000000
(PID.TID 0000.0001) //          Total. Y spins =              0
(PID.TID 0000.0001) //            Avg. Y spins =       0.00E+00
(PID.TID 0000.0001) // o Tile number: 000010
(PID.TID 0000.0001) //         No. X exchanges =              0
(PID.TID 0000.0001) //            Max. X spins =              0
(PID.TID 0000.0001) //            Min. X spins =     1000000000
(PID.TID 0000.0001) //          Total. X spins =              0
(PID.TID 0000.0001) //            Avg. X spins =       0.00E+00
(PID.TID 0000.0001) //         No. Y exchanges =              0
(PID.TID 0000.0001) //            Max. Y spins =              0
(PID.TID 0000.0001) //            Min. Y spins =     1000000000
(PID.TID 0000.0001) //          Total. Y spins =              0
(PID.TID 0000.0001) //            Avg. Y spins =       0.00E+00
(PID.TID 0000.0001) // o Tile number: 000011
(PID.TID 0000.0001) //         No. X exchanges =              0
(PID.TID 0000.0001) //            Max. X spins =              0
(PID.TID 0000.0001) //            Min. X spins =     1000000000
(PID.TID 0000.0001) //          Total. X spins =              0
(PID.TID 0000.0001) //            Avg. X spins =       0.00E+00
(PID.TID 0000.0001) //         No. Y exchanges =              0
(PID.TID 0000.0001) //            Max. Y spins =              0
(PID.TID 0000.0001) //            Min. Y spins =     1000000000
(PID.TID 0000.0001) //          Total. Y spins =              0
(PID.TID 0000.0001) //            Avg. Y spins =       0.00E+00
(PID.TID 0000.0001) // o Tile number: 000012
(PID.TID 0000.0001) //         No. X exchanges =              0
(PID.TID 0000.0001) //            Max. X spins =              0
(PID.TID 0000.0001) //            Min. X spins =     1000000000
(PID.TID 0000.0001) //          Total. X spins =              0
(PID.TID 0000.0001) //            Avg. X spins =       0.00E+00
(PID.TID 0000.0001) //         No. Y exchanges =              0
(PID.TID 0000.0001) //            Max. Y spins =              0
(PID.TID 0000.0001) //            Min. Y spins =     1000000000
(PID.TID 0000.0001) //          Total. Y spins =              0
(PID.TID 0000.0001) //            Avg. Y spins =       0.00E+00
(PID.TID 0000.0001) // o Tile number: 000013
(PID.TID 0000.0001) //         No. X exchanges =              0
(PID.TID 0000.0001) //            Max. X spins =              0
(PID.TID 0000.0001) //            Min. X spins =     1000000000
(PID.TID 0000.0001) //          Total. X spins =              0
(PID.TID 0000.0001) //            Avg. X spins =       0.00E+00
(PID.TID 0000.0001) //         No. Y exchanges =              0
(PID.TID 0000.0001) //            Max. Y spins =              0
(PID.TID 0000.0001) //            Min. Y spins =     1000000000
(PID.TID 0000.0001) //          Total. Y spins =              0
(PID.TID 0000.0001) //            Avg. Y spins =       0.00E+00
(PID.TID 0000.0001) // o Tile number: 000014
(PID.TID 0000.0001) //         No. X exchanges =              0
(PID.TID 0000.0001) //            Max. X spins =              0
(PID.TID 0000.0001) //            Min. X spins =     1000000000
(PID.TID 0000.0001) //          Total. X spins =              0
(PID.TID 0000.0001) //            Avg. X spins =       0.00E+00
(PID.TID 0000.0001) //         No. Y exchanges =              0
(PID.TID 0000.0001) //            Max. Y spins =              0
(PID.TID 0000.0001) //            Min. Y spins =     1000000000
(PID.TID 0000.0001) //          Total. Y spins =              0
(PID.TID 0000.0001) //            Avg. Y spins =       0.00E+00
(PID.TID 0000.0001) // o Tile number: 000015
(PID.TID 0000.0001) //         No. X exchanges =              0
(PID.TID 0000.0001) //            Max. X spins =              0
(PID.TID 0000.0001) //            Min. X spins =     1000000000
(PID.TID 0000.0001) //          Total. X spins =              0
(PID.TID 0000.0001) //            Avg. X spins =       0.00E+00
(PID.TID 0000.0001) //         No. Y exchanges =              0
(PID.TID 0000.0001) //            Max. Y spins =              0
(PID.TID 0000.0001) //            Min. Y spins =     1000000000
(PID.TID 0000.0001) //          Total. Y spins =              0
(PID.TID 0000.0001) //            Avg. Y spins =       0.00E+00
(PID.TID 0000.0001) // o Tile number: 000016
(PID.TID 0000.0001) //         No. X exchanges =              0
(PID.TID 0000.0001) //            Max. X spins =              0
(PID.TID 0000.0001) //            Min. X spins =     1000000000
(PID.TID 0000.0001) //          Total. X spins =              0
(PID.TID 0000.0001) //            Avg. X spins =       0.00E+00
(PID.TID 0000.0001) //         No. Y exchanges =              0
(PID.TID 0000.0001) //            Max. Y spins =              0
(PID.TID 0000.0001) //            Min. Y spins =     1000000000
(PID.TID 0000.0001) //          Total. Y spins =              0
(PID.TID 0000.0001) //            Avg. Y spins =       0.00E+00
(PID.TID 0000.0001) // o Tile number: 000017
(PID.TID 0000.0001) //         No. X exchanges =              0
(PID.TID 0000.0001) //            Max. X spins =              0
(PID.TID 0000.0001) //            Min. X spins =     1000000000
(PID.TID 0000.0001) //          Total. X spins =              0
(PID.TID 0000.0001) //            Avg. X spins =       0.00E+00
(PID.TID 0000.0001) //         No. Y exchanges =              0
(PID.TID 0000.0001) //            Max. Y spins =              0
(PID.TID 0000.0001) //            Min. Y spins =     1000000000
(PID.TID 0000.0001) //          Total. Y spins =              0
(PID.TID 0000.0001) //            Avg. Y spins =       0.00E+00
(PID.TID 0000.0001) // o Tile number: 000018
(PID.TID 0000.0001) //         No. X exchanges =              0
(PID.TID 0000.0001) //            Max. X spins =              0
(PID.TID 0000.0001) //            Min. X spins =     1000000000
(PID.TID 0000.0001) //          Total. X spins =              0
(PID.TID 0000.0001) //            Avg. X spins =       0.00E+00
(PID.TID 0000.0001) //         No. Y exchanges =              0
(PID.TID 0000.0001) //            Max. Y spins =              0
(PID.TID 0000.0001) //            Min. Y spins =     1000000000
(PID.TID 0000.0001) //          Total. Y spins =              0
(PID.TID 0000.0001) //            Avg. Y spins =       0.00E+00
(PID.TID 0000.0001) // o Tile number: 000019
(PID.TID 0000.0001) //         No. X exchanges =              0
(PID.TID 0000.0001) //            Max. X spins =              0
(PID.TID 0000.0001) //            Min. X spins =     1000000000
(PID.TID 0000.0001) //          Total. X spins =              0
(PID.TID 0000.0001) //            Avg. X spins =       0.00E+00
(PID.TID 0000.0001) //         No. Y exchanges =              0
(PID.TID 0000.0001) //            Max. Y spins =              0
(PID.TID 0000.0001) //            Min. Y spins =     1000000000
(PID.TID 0000.0001) //          Total. Y spins =              0
(PID.TID 0000.0001) //            Avg. Y spins =       0.00E+00
(PID.TID 0000.0001) // o Tile number: 000020
(PID.TID 0000.0001) //         No. X exchanges =              0
(PID.TID 0000.0001) //            Max. X spins =              0
(PID.TID 0000.0001) //            Min. X spins =     1000000000
(PID.TID 0000.0001) //          Total. X spins =              0
(PID.TID 0000.0001) //            Avg. X spins =       0.00E+00
(PID.TID 0000.0001) //         No. Y exchanges =              0
(PID.TID 0000.0001) //            Max. Y spins =              0
(PID.TID 0000.0001) //            Min. Y spins =     1000000000
(PID.TID 0000.0001) //          Total. Y spins =              0
(PID.TID 0000.0001) //            Avg. Y spins =       0.00E+00
(PID.TID 0000.0001) // o Tile number: 000021
(PID.TID 0000.0001) //         No. X exchanges =              0
(PID.TID 0000.0001) //            Max. X spins =              0
(PID.TID 0000.0001) //            Min. X spins =     1000000000
(PID.TID 0000.0001) //          Total. X spins =              0
(PID.TID 0000.0001) //            Avg. X spins =       0.00E+00
(PID.TID 0000.0001) //         No. Y exchanges =              0
(PID.TID 0000.0001) //            Max. Y spins =              0
(PID.TID 0000.0001) //            Min. Y spins =     1000000000
(PID.TID 0000.0001) //          Total. Y spins =              0
(PID.TID 0000.0001) //            Avg. Y spins =       0.00E+00
(PID.TID 0000.0001) // o Tile number: 000022
(PID.TID 0000.0001) //         No. X exchanges =              0
(PID.TID 0000.0001) //            Max. X spins =              0
(PID.TID 0000.0001) //            Min. X spins =     1000000000
(PID.TID 0000.0001) //          Total. X spins =              0
(PID.TID 0000.0001) //            Avg. X spins =       0.00E+00
(PID.TID 0000.0001) //         No. Y exchanges =              0
(PID.TID 0000.0001) //            Max. Y spins =              0
(PID.TID 0000.0001) //            Min. Y spins =     1000000000
(PID.TID 0000.0001) //          Total. Y spins =              0
(PID.TID 0000.0001) //            Avg. Y spins =       0.00E+00
(PID.TID 0000.0001) // o Tile number: 000023
(PID.TID 0000.0001) //         No. X exchanges =              0
(PID.TID 0000.0001) //            Max. X spins =              0
(PID.TID 0000.0001) //            Min. X spins =     1000000000
(PID.TID 0000.0001) //          Total. X spins =              0
(PID.TID 0000.0001) //            Avg. X spins =       0.00E+00
(PID.TID 0000.0001) //         No. Y exchanges =              0
(PID.TID 0000.0001) //            Max. Y spins =              0
(PID.TID 0000.0001) //            Min. Y spins =     1000000000
(PID.TID 0000.0001) //          Total. Y spins =              0
(PID.TID 0000.0001) //            Avg. Y spins =       0.00E+00
(PID.TID 0000.0001) // o Tile number: 000024
(PID.TID 0000.0001) //         No. X exchanges =              0
(PID.TID 0000.0001) //            Max. X spins =              0
(PID.TID 0000.0001) //            Min. X spins =     1000000000
(PID.TID 0000.0001) //          Total. X spins =              0
(PID.TID 0000.0001) //            Avg. X spins =       0.00E+00
(PID.TID 0000.0001) //         No. Y exchanges =              0
(PID.TID 0000.0001) //            Max. Y spins =              0
(PID.TID 0000.0001) //            Min. Y spins =     1000000000
(PID.TID 0000.0001) //          Total. Y spins =              0
(PID.TID 0000.0001) //            Avg. Y spins =       0.00E+00
(PID.TID 0000.0001) // o Tile number: 000025
(PID.TID 0000.0001) //         No. X exchanges =              0
(PID.TID 0000.0001) //            Max. X spins =              0
(PID.TID 0000.0001) //            Min. X spins =     1000000000
(PID.TID 0000.0001) //          Total. X spins =              0
(PID.TID 0000.0001) //            Avg. X spins =       0.00E+00
(PID.TID 0000.0001) //         No. Y exchanges =              0
(PID.TID 0000.0001) //            Max. Y spins =              0
(PID.TID 0000.0001) //            Min. Y spins =     1000000000
(PID.TID 0000.0001) //          Total. Y spins =              0
(PID.TID 0000.0001) //            Avg. Y spins =       0.00E+00
(PID.TID 0000.0001) // o Tile number: 000026
(PID.TID 0000.0001) //         No. X exchanges =              0
(PID.TID 0000.0001) //            Max. X spins =              0
(PID.TID 0000.0001) //            Min. X spins =     1000000000
(PID.TID 0000.0001) //          Total. X spins =              0
(PID.TID 0000.0001) //            Avg. X spins =       0.00E+00
(PID.TID 0000.0001) //         No. Y exchanges =              0
(PID.TID 0000.0001) //            Max. Y spins =              0
(PID.TID 0000.0001) //            Min. Y spins =     1000000000
(PID.TID 0000.0001) //          Total. Y spins =              0
(PID.TID 0000.0001) //            Avg. Y spins =       0.00E+00
(PID.TID 0000.0001) // o Tile number: 000027
(PID.TID 0000.0001) //         No. X exchanges =              0
(PID.TID 0000.0001) //            Max. X spins =              0
(PID.TID 0000.0001) //            Min. X spins =     1000000000
(PID.TID 0000.0001) //          Total. X spins =              0
(PID.TID 0000.0001) //            Avg. X spins =       0.00E+00
(PID.TID 0000.0001) //         No. Y exchanges =              0
(PID.TID 0000.0001) //            Max. Y spins =              0
(PID.TID 0000.0001) //            Min. Y spins =     1000000000
(PID.TID 0000.0001) //          Total. Y spins =              0
(PID.TID 0000.0001) //            Avg. Y spins =       0.00E+00
(PID.TID 0000.0001) // o Tile number: 000028
(PID.TID 0000.0001) //         No. X exchanges =              0
(PID.TID 0000.0001) //            Max. X spins =              0
(PID.TID 0000.0001) //            Min. X spins =     1000000000
(PID.TID 0000.0001) //          Total. X spins =              0
(PID.TID 0000.0001) //            Avg. X spins =       0.00E+00
(PID.TID 0000.0001) //         No. Y exchanges =              0
(PID.TID 0000.0001) //            Max. Y spins =              0
(PID.TID 0000.0001) //            Min. Y spins =     1000000000
(PID.TID 0000.0001) //          Total. Y spins =              0
(PID.TID 0000.0001) //            Avg. Y spins =       0.00E+00
(PID.TID 0000.0001) // o Tile number: 000029
(PID.TID 0000.0001) //         No. X exchanges =              0
(PID.TID 0000.0001) //            Max. X spins =              0
(PID.TID 0000.0001) //            Min. X spins =     1000000000
(PID.TID 0000.0001) //          Total. X spins =              0
(PID.TID 0000.0001) //            Avg. X spins =       0.00E+00
(PID.TID 0000.0001) //         No. Y exchanges =              0
(PID.TID 0000.0001) //            Max. Y spins =              0
(PID.TID 0000.0001) //            Min. Y spins =     1000000000
(PID.TID 0000.0001) //          Total. Y spins =              0
(PID.TID 0000.0001) //            Avg. Y spins =       0.00E+00
(PID.TID 0000.0001) // o Tile number: 000030
(PID.TID 0000.0001) //         No. X exchanges =              0
(PID.TID 0000.0001) //            Max. X spins =              0
(PID.TID 0000.0001) //            Min. X spins =     1000000000
(PID.TID 0000.0001) //          Total. X spins =              0
(PID.TID 0000.0001) //            Avg. X spins =       0.00E+00
(PID.TID 0000.0001) //         No. Y exchanges =              0
(PID.TID 0000.0001) //            Max. Y spins =              0
(PID.TID 0000.0001) //            Min. Y spins =     1000000000
(PID.TID 0000.0001) //          Total. Y spins =              0
(PID.TID 0000.0001) //            Avg. Y spins =       0.00E+00
(PID.TID 0000.0001) // o Tile number: 000031
(PID.TID 0000.0001) //         No. X exchanges =              0
(PID.TID 0000.0001) //            Max. X spins =              0
(PID.TID 0000.0001) //            Min. X spins =     1000000000
(PID.TID 0000.0001) //          Total. X spins =              0
(PID.TID 0000.0001) //            Avg. X spins =       0.00E+00
(PID.TID 0000.0001) //         No. Y exchanges =              0
(PID.TID 0000.0001) //            Max. Y spins =              0
(PID.TID 0000.0001) //            Min. Y spins =     1000000000
(PID.TID 0000.0001) //          Total. Y spins =              0
(PID.TID 0000.0001) //            Avg. Y spins =       0.00E+00
(PID.TID 0000.0001) // o Tile number: 000032
(PID.TID 0000.0001) //         No. X exchanges =              0
(PID.TID 0000.0001) //            Max. X spins =              0
(PID.TID 0000.0001) //            Min. X spins =     1000000000
(PID.TID 0000.0001) //          Total. X spins =              0
(PID.TID 0000.0001) //            Avg. X spins =       0.00E+00
(PID.TID 0000.0001) //         No. Y exchanges =              0
(PID.TID 0000.0001) //            Max. Y spins =              0
(PID.TID 0000.0001) //            Min. Y spins =     1000000000
(PID.TID 0000.0001) //          Total. Y spins =              0
(PID.TID 0000.0001) //            Avg. Y spins =       0.00E+00
(PID.TID 0000.0001) // o Tile number: 000033
(PID.TID 0000.0001) //         No. X exchanges =              0
(PID.TID 0000.0001) //            Max. X spins =              0
(PID.TID 0000.0001) //            Min. X spins =     1000000000
(PID.TID 0000.0001) //          Total. X spins =              0
(PID.TID 0000.0001) //            Avg. X spins =       0.00E+00
(PID.TID 0000.0001) //         No. Y exchanges =              0
(PID.TID 0000.0001) //            Max. Y spins =              0
(PID.TID 0000.0001) //            Min. Y spins =     1000000000
(PID.TID 0000.0001) //          Total. Y spins =              0
(PID.TID 0000.0001) //            Avg. Y spins =       0.00E+00
(PID.TID 0000.0001) // o Tile number: 000034
(PID.TID 0000.0001) //         No. X exchanges =              0
(PID.TID 0000.0001) //            Max. X spins =              0
(PID.TID 0000.0001) //            Min. X spins =     1000000000
(PID.TID 0000.0001) //          Total. X spins =              0
(PID.TID 0000.0001) //            Avg. X spins =       0.00E+00
(PID.TID 0000.0001) //         No. Y exchanges =              0
(PID.TID 0000.0001) //            Max. Y spins =              0
(PID.TID 0000.0001) //            Min. Y spins =     1000000000
(PID.TID 0000.0001) //          Total. Y spins =              0
(PID.TID 0000.0001) //            Avg. Y spins =       0.00E+00
(PID.TID 0000.0001) // o Tile number: 000035
(PID.TID 0000.0001) //         No. X exchanges =              0
(PID.TID 0000.0001) //            Max. X spins =              0
(PID.TID 0000.0001) //            Min. X spins =     1000000000
(PID.TID 0000.0001) //          Total. X spins =              0
(PID.TID 0000.0001) //            Avg. X spins =       0.00E+00
(PID.TID 0000.0001) //         No. Y exchanges =              0
(PID.TID 0000.0001) //            Max. Y spins =              0
(PID.TID 0000.0001) //            Min. Y spins =     1000000000
(PID.TID 0000.0001) //          Total. Y spins =              0
(PID.TID 0000.0001) //            Avg. Y spins =       0.00E+00
(PID.TID 0000.0001) // o Tile number: 000036
(PID.TID 0000.0001) //         No. X exchanges =              0
(PID.TID 0000.0001) //            Max. X spins =              0
(PID.TID 0000.0001) //            Min. X spins =     1000000000
(PID.TID 0000.0001) //          Total. X spins =              0
(PID.TID 0000.0001) //            Avg. X spins =       0.00E+00
(PID.TID 0000.0001) //         No. Y exchanges =              0
(PID.TID 0000.0001) //            Max. Y spins =              0
(PID.TID 0000.0001) //            Min. Y spins =     1000000000
(PID.TID 0000.0001) //          Total. Y spins =              0
(PID.TID 0000.0001) //            Avg. Y spins =       0.00E+00
(PID.TID 0000.0001) // o Tile number: 000037
(PID.TID 0000.0001) //         No. X exchanges =              0
(PID.TID 0000.0001) //            Max. X spins =              0
(PID.TID 0000.0001) //            Min. X spins =     1000000000
(PID.TID 0000.0001) //          Total. X spins =              0
(PID.TID 0000.0001) //            Avg. X spins =       0.00E+00
(PID.TID 0000.0001) //         No. Y exchanges =              0
(PID.TID 0000.0001) //            Max. Y spins =              0
(PID.TID 0000.0001) //            Min. Y spins =     1000000000
(PID.TID 0000.0001) //          Total. Y spins =              0
(PID.TID 0000.0001) //            Avg. Y spins =       0.00E+00
(PID.TID 0000.0001) // o Tile number: 000038
(PID.TID 0000.0001) //         No. X exchanges =              0
(PID.TID 0000.0001) //            Max. X spins =              0
(PID.TID 0000.0001) //            Min. X spins =     1000000000
(PID.TID 0000.0001) //          Total. X spins =              0
(PID.TID 0000.0001) //            Avg. X spins =       0.00E+00
(PID.TID 0000.0001) //         No. Y exchanges =              0
(PID.TID 0000.0001) //            Max. Y spins =              0
(PID.TID 0000.0001) //            Min. Y spins =     1000000000
(PID.TID 0000.0001) //          Total. Y spins =              0
(PID.TID 0000.0001) //            Avg. Y spins =       0.00E+00
(PID.TID 0000.0001) // o Tile number: 000039
(PID.TID 0000.0001) //         No. X exchanges =              0
(PID.TID 0000.0001) //            Max. X spins =              0
(PID.TID 0000.0001) //            Min. X spins =     1000000000
(PID.TID 0000.0001) //          Total. X spins =              0
(PID.TID 0000.0001) //            Avg. X spins =       0.00E+00
(PID.TID 0000.0001) //         No. Y exchanges =              0
(PID.TID 0000.0001) //            Max. Y spins =              0
(PID.TID 0000.0001) //            Min. Y spins =     1000000000
(PID.TID 0000.0001) //          Total. Y spins =              0
(PID.TID 0000.0001) //            Avg. Y spins =       0.00E+00
(PID.TID 0000.0001) // o Tile number: 000040
(PID.TID 0000.0001) //         No. X exchanges =              0
(PID.TID 0000.0001) //            Max. X spins =              0
(PID.TID 0000.0001) //            Min. X spins =     1000000000
(PID.TID 0000.0001) //          Total. X spins =              0
(PID.TID 0000.0001) //            Avg. X spins =       0.00E+00
(PID.TID 0000.0001) //         No. Y exchanges =              0
(PID.TID 0000.0001) //            Max. Y spins =              0
(PID.TID 0000.0001) //            Min. Y spins =     1000000000
(PID.TID 0000.0001) //          Total. Y spins =              0
(PID.TID 0000.0001) //            Avg. Y spins =       0.00E+00
(PID.TID 0000.0001) // o Tile number: 000041
(PID.TID 0000.0001) //         No. X exchanges =              0
(PID.TID 0000.0001) //            Max. X spins =              0
(PID.TID 0000.0001) //            Min. X spins =     1000000000
(PID.TID 0000.0001) //          Total. X spins =              0
(PID.TID 0000.0001) //            Avg. X spins =       0.00E+00
(PID.TID 0000.0001) //         No. Y exchanges =              0
(PID.TID 0000.0001) //            Max. Y spins =              0
(PID.TID 0000.0001) //            Min. Y spins =     1000000000
(PID.TID 0000.0001) //          Total. Y spins =              0
(PID.TID 0000.0001) //            Avg. Y spins =       0.00E+00
(PID.TID 0000.0001) // o Tile number: 000042
(PID.TID 0000.0001) //         No. X exchanges =              0
(PID.TID 0000.0001) //            Max. X spins =              0
(PID.TID 0000.0001) //            Min. X spins =     1000000000
(PID.TID 0000.0001) //          Total. X spins =              0
(PID.TID 0000.0001) //            Avg. X spins =       0.00E+00
(PID.TID 0000.0001) //         No. Y exchanges =              0
(PID.TID 0000.0001) //            Max. Y spins =              0
(PID.TID 0000.0001) //            Min. Y spins =     1000000000
(PID.TID 0000.0001) //          Total. Y spins =              0
(PID.TID 0000.0001) //            Avg. Y spins =       0.00E+00
(PID.TID 0000.0001) // o Tile number: 000043
(PID.TID 0000.0001) //         No. X exchanges =              0
(PID.TID 0000.0001) //            Max. X spins =              0
(PID.TID 0000.0001) //            Min. X spins =     1000000000
(PID.TID 0000.0001) //          Total. X spins =              0
(PID.TID 0000.0001) //            Avg. X spins =       0.00E+00
(PID.TID 0000.0001) //         No. Y exchanges =              0
(PID.TID 0000.0001) //            Max. Y spins =              0
(PID.TID 0000.0001) //            Min. Y spins =     1000000000
(PID.TID 0000.0001) //          Total. Y spins =              0
(PID.TID 0000.0001) //            Avg. Y spins =       0.00E+00
(PID.TID 0000.0001) // o Tile number: 000044
(PID.TID 0000.0001) //         No. X exchanges =              0
(PID.TID 0000.0001) //            Max. X spins =              0
(PID.TID 0000.0001) //            Min. X spins =     1000000000
(PID.TID 0000.0001) //          Total. X spins =              0
(PID.TID 0000.0001) //            Avg. X spins =       0.00E+00
(PID.TID 0000.0001) //         No. Y exchanges =              0
(PID.TID 0000.0001) //            Max. Y spins =              0
(PID.TID 0000.0001) //            Min. Y spins =     1000000000
(PID.TID 0000.0001) //          Total. Y spins =              0
(PID.TID 0000.0001) //            Avg. Y spins =       0.00E+00
(PID.TID 0000.0001) // o Tile number: 000045
(PID.TID 0000.0001) //         No. X exchanges =              0
(PID.TID 0000.0001) //            Max. X spins =              0
(PID.TID 0000.0001) //            Min. X spins =     1000000000
(PID.TID 0000.0001) //          Total. X spins =              0
(PID.TID 0000.0001) //            Avg. X spins =       0.00E+00
(PID.TID 0000.0001) //         No. Y exchanges =              0
(PID.TID 0000.0001) //            Max. Y spins =              0
(PID.TID 0000.0001) //            Min. Y spins =     1000000000
(PID.TID 0000.0001) //          Total. Y spins =              0
(PID.TID 0000.0001) //            Avg. Y spins =       0.00E+00
(PID.TID 0000.0001) // o Tile number: 000046
(PID.TID 0000.0001) //         No. X exchanges =              0
(PID.TID 0000.0001) //            Max. X spins =              0
(PID.TID 0000.0001) //            Min. X spins =     1000000000
(PID.TID 0000.0001) //          Total. X spins =              0
(PID.TID 0000.0001) //            Avg. X spins =       0.00E+00
(PID.TID 0000.0001) //         No. Y exchanges =              0
(PID.TID 0000.0001) //            Max. Y spins =              0
(PID.TID 0000.0001) //            Min. Y spins =     1000000000
(PID.TID 0000.0001) //          Total. Y spins =              0
(PID.TID 0000.0001) //            Avg. Y spins =       0.00E+00
(PID.TID 0000.0001) // o Tile number: 000047
(PID.TID 0000.0001) //         No. X exchanges =              0
(PID.TID 0000.0001) //            Max. X spins =              0
(PID.TID 0000.0001) //            Min. X spins =     1000000000
(PID.TID 0000.0001) //          Total. X spins =              0
(PID.TID 0000.0001) //            Avg. X spins =       0.00E+00
(PID.TID 0000.0001) //         No. Y exchanges =              0
(PID.TID 0000.0001) //            Max. Y spins =              0
(PID.TID 0000.0001) //            Min. Y spins =     1000000000
(PID.TID 0000.0001) //          Total. Y spins =              0
(PID.TID 0000.0001) //            Avg. Y spins =       0.00E+00
(PID.TID 0000.0001) // o Tile number: 000048
(PID.TID 0000.0001) //         No. X exchanges =              0
(PID.TID 0000.0001) //            Max. X spins =              0
(PID.TID 0000.0001) //            Min. X spins =     1000000000
(PID.TID 0000.0001) //          Total. X spins =              0
(PID.TID 0000.0001) //            Avg. X spins =       0.00E+00
(PID.TID 0000.0001) //         No. Y exchanges =              0
(PID.TID 0000.0001) //            Max. Y spins =              0
(PID.TID 0000.0001) //            Min. Y spins =     1000000000
(PID.TID 0000.0001) //          Total. Y spins =              0
(PID.TID 0000.0001) //            Avg. Y spins =       0.00E+00
(PID.TID 0000.0001) // o Tile number: 000049
(PID.TID 0000.0001) //         No. X exchanges =              0
(PID.TID 0000.0001) //            Max. X spins =              0
(PID.TID 0000.0001) //            Min. X spins =     1000000000
(PID.TID 0000.0001) //          Total. X spins =              0
(PID.TID 0000.0001) //            Avg. X spins =       0.00E+00
(PID.TID 0000.0001) //         No. Y exchanges =              0
(PID.TID 0000.0001) //            Max. Y spins =              0
(PID.TID 0000.0001) //            Min. Y spins =     1000000000
(PID.TID 0000.0001) //          Total. Y spins =              0
(PID.TID 0000.0001) //            Avg. Y spins =       0.00E+00
(PID.TID 0000.0001) // o Tile number: 000050
(PID.TID 0000.0001) //         No. X exchanges =              0
(PID.TID 0000.0001) //            Max. X spins =              0
(PID.TID 0000.0001) //            Min. X spins =     1000000000
(PID.TID 0000.0001) //          Total. X spins =              0
(PID.TID 0000.0001) //            Avg. X spins =       0.00E+00
(PID.TID 0000.0001) //         No. Y exchanges =              0
(PID.TID 0000.0001) //            Max. Y spins =              0
(PID.TID 0000.0001) //            Min. Y spins =     1000000000
(PID.TID 0000.0001) //          Total. Y spins =              0
(PID.TID 0000.0001) //            Avg. Y spins =       0.00E+00
(PID.TID 0000.0001) // o Tile number: 000051
(PID.TID 0000.0001) //         No. X exchanges =              0
(PID.TID 0000.0001) //            Max. X spins =              0
(PID.TID 0000.0001) //            Min. X spins =     1000000000
(PID.TID 0000.0001) //          Total. X spins =              0
(PID.TID 0000.0001) //            Avg. X spins =       0.00E+00
(PID.TID 0000.0001) //         No. Y exchanges =              0
(PID.TID 0000.0001) //            Max. Y spins =              0
(PID.TID 0000.0001) //            Min. Y spins =     1000000000
(PID.TID 0000.0001) //          Total. Y spins =              0
(PID.TID 0000.0001) //            Avg. Y spins =       0.00E+00
(PID.TID 0000.0001) // o Tile number: 000052
(PID.TID 0000.0001) //         No. X exchanges =              0
(PID.TID 0000.0001) //            Max. X spins =              0
(PID.TID 0000.0001) //            Min. X spins =     1000000000
(PID.TID 0000.0001) //          Total. X spins =              0
(PID.TID 0000.0001) //            Avg. X spins =       0.00E+00
(PID.TID 0000.0001) //         No. Y exchanges =              0
(PID.TID 0000.0001) //            Max. Y spins =              0
(PID.TID 0000.0001) //            Min. Y spins =     1000000000
(PID.TID 0000.0001) //          Total. Y spins =              0
(PID.TID 0000.0001) //            Avg. Y spins =       0.00E+00
(PID.TID 0000.0001) // o Tile number: 000053
(PID.TID 0000.0001) //         No. X exchanges =              0
(PID.TID 0000.0001) //            Max. X spins =              0
(PID.TID 0000.0001) //            Min. X spins =     1000000000
(PID.TID 0000.0001) //          Total. X spins =              0
(PID.TID 0000.0001) //            Avg. X spins =       0.00E+00
(PID.TID 0000.0001) //         No. Y exchanges =              0
(PID.TID 0000.0001) //            Max. Y spins =              0
(PID.TID 0000.0001) //            Min. Y spins =     1000000000
(PID.TID 0000.0001) //          Total. Y spins =              0
(PID.TID 0000.0001) //            Avg. Y spins =       0.00E+00
(PID.TID 0000.0001) // o Tile number: 000054
(PID.TID 0000.0001) //         No. X exchanges =              0
(PID.TID 0000.0001) //            Max. X spins =              0
(PID.TID 0000.0001) //            Min. X spins =     1000000000
(PID.TID 0000.0001) //          Total. X spins =              0
(PID.TID 0000.0001) //            Avg. X spins =       0.00E+00
(PID.TID 0000.0001) //         No. Y exchanges =              0
(PID.TID 0000.0001) //            Max. Y spins =              0
(PID.TID 0000.0001) //            Min. Y spins =     1000000000
(PID.TID 0000.0001) //          Total. Y spins =              0
(PID.TID 0000.0001) //            Avg. Y spins =       0.00E+00
(PID.TID 0000.0001) // o Tile number: 000055
(PID.TID 0000.0001) //         No. X exchanges =              0
(PID.TID 0000.0001) //            Max. X spins =              0
(PID.TID 0000.0001) //            Min. X spins =     1000000000
(PID.TID 0000.0001) //          Total. X spins =              0
(PID.TID 0000.0001) //            Avg. X spins =       0.00E+00
(PID.TID 0000.0001) //         No. Y exchanges =              0
(PID.TID 0000.0001) //            Max. Y spins =              0
(PID.TID 0000.0001) //            Min. Y spins =     1000000000
(PID.TID 0000.0001) //          Total. Y spins =              0
(PID.TID 0000.0001) //            Avg. Y spins =       0.00E+00
(PID.TID 0000.0001) // o Tile number: 000056
(PID.TID 0000.0001) //         No. X exchanges =              0
(PID.TID 0000.0001) //            Max. X spins =              0
(PID.TID 0000.0001) //            Min. X spins =     1000000000
(PID.TID 0000.0001) //          Total. X spins =              0
(PID.TID 0000.0001) //            Avg. X spins =       0.00E+00
(PID.TID 0000.0001) //         No. Y exchanges =              0
(PID.TID 0000.0001) //            Max. Y spins =              0
(PID.TID 0000.0001) //            Min. Y spins =     1000000000
(PID.TID 0000.0001) //          Total. Y spins =              0
(PID.TID 0000.0001) //            Avg. Y spins =       0.00E+00
(PID.TID 0000.0001) // o Tile number: 000057
(PID.TID 0000.0001) //         No. X exchanges =              0
(PID.TID 0000.0001) //            Max. X spins =              0
(PID.TID 0000.0001) //            Min. X spins =     1000000000
(PID.TID 0000.0001) //          Total. X spins =              0
(PID.TID 0000.0001) //            Avg. X spins =       0.00E+00
(PID.TID 0000.0001) //         No. Y exchanges =              0
(PID.TID 0000.0001) //            Max. Y spins =              0
(PID.TID 0000.0001) //            Min. Y spins =     1000000000
(PID.TID 0000.0001) //          Total. Y spins =              0
(PID.TID 0000.0001) //            Avg. Y spins =       0.00E+00
(PID.TID 0000.0001) // o Tile number: 000058
(PID.TID 0000.0001) //         No. X exchanges =              0
(PID.TID 0000.0001) //            Max. X spins =              0
(PID.TID 0000.0001) //            Min. X spins =     1000000000
(PID.TID 0000.0001) //          Total. X spins =              0
(PID.TID 0000.0001) //            Avg. X spins =       0.00E+00
(PID.TID 0000.0001) //         No. Y exchanges =              0
(PID.TID 0000.0001) //            Max. Y spins =              0
(PID.TID 0000.0001) //            Min. Y spins =     1000000000
(PID.TID 0000.0001) //          Total. Y spins =              0
(PID.TID 0000.0001) //            Avg. Y spins =       0.00E+00
(PID.TID 0000.0001) // o Tile number: 000059
(PID.TID 0000.0001) //         No. X exchanges =              0
(PID.TID 0000.0001) //            Max. X spins =              0
(PID.TID 0000.0001) //            Min. X spins =     1000000000
(PID.TID 0000.0001) //          Total. X spins =              0
(PID.TID 0000.0001) //            Avg. X spins =       0.00E+00
(PID.TID 0000.0001) //         No. Y exchanges =              0
(PID.TID 0000.0001) //            Max. Y spins =              0
(PID.TID 0000.0001) //            Min. Y spins =     1000000000
(PID.TID 0000.0001) //          Total. Y spins =              0
(PID.TID 0000.0001) //            Avg. Y spins =       0.00E+00
(PID.TID 0000.0001) // o Tile number: 000060
(PID.TID 0000.0001) //         No. X exchanges =              0
(PID.TID 0000.0001) //            Max. X spins =              0
(PID.TID 0000.0001) //            Min. X spins =     1000000000
(PID.TID 0000.0001) //          Total. X spins =              0
(PID.TID 0000.0001) //            Avg. X spins =       0.00E+00
(PID.TID 0000.0001) //         No. Y exchanges =              0
(PID.TID 0000.0001) //            Max. Y spins =              0
(PID.TID 0000.0001) //            Min. Y spins =     1000000000
(PID.TID 0000.0001) //          Total. Y spins =              0
(PID.TID 0000.0001) //            Avg. Y spins =       0.00E+00
(PID.TID 0000.0001) // o Tile number: 000061
(PID.TID 0000.0001) //         No. X exchanges =              0
(PID.TID 0000.0001) //            Max. X spins =              0
(PID.TID 0000.0001) //            Min. X spins =     1000000000
(PID.TID 0000.0001) //          Total. X spins =              0
(PID.TID 0000.0001) //            Avg. X spins =       0.00E+00
(PID.TID 0000.0001) //         No. Y exchanges =              0
(PID.TID 0000.0001) //            Max. Y spins =              0
(PID.TID 0000.0001) //            Min. Y spins =     1000000000
(PID.TID 0000.0001) //          Total. Y spins =              0
(PID.TID 0000.0001) //            Avg. Y spins =       0.00E+00
(PID.TID 0000.0001) // o Tile number: 000062
(PID.TID 0000.0001) //         No. X exchanges =              0
(PID.TID 0000.0001) //            Max. X spins =              0
(PID.TID 0000.0001) //            Min. X spins =     1000000000
(PID.TID 0000.0001) //          Total. X spins =              0
(PID.TID 0000.0001) //            Avg. X spins =       0.00E+00
(PID.TID 0000.0001) //         No. Y exchanges =              0
(PID.TID 0000.0001) //            Max. Y spins =              0
(PID.TID 0000.0001) //            Min. Y spins =     1000000000
(PID.TID 0000.0001) //          Total. Y spins =              0
(PID.TID 0000.0001) //            Avg. Y spins =       0.00E+00
(PID.TID 0000.0001) // o Tile number: 000063
(PID.TID 0000.0001) //         No. X exchanges =              0
(PID.TID 0000.0001) //            Max. X spins =              0
(PID.TID 0000.0001) //            Min. X spins =     1000000000
(PID.TID 0000.0001) //          Total. X spins =              0
(PID.TID 0000.0001) //            Avg. X spins =       0.00E+00
(PID.TID 0000.0001) //         No. Y exchanges =              0
(PID.TID 0000.0001) //            Max. Y spins =              0
(PID.TID 0000.0001) //            Min. Y spins =     1000000000
(PID.TID 0000.0001) //          Total. Y spins =              0
(PID.TID 0000.0001) //            Avg. Y spins =       0.00E+00
(PID.TID 0000.0001) // o Tile number: 000064
(PID.TID 0000.0001) //         No. X exchanges =              0
(PID.TID 0000.0001) //            Max. X spins =              0
(PID.TID 0000.0001) //            Min. X spins =     1000000000
(PID.TID 0000.0001) //          Total. X spins =              0
(PID.TID 0000.0001) //            Avg. X spins =       0.00E+00
(PID.TID 0000.0001) //         No. Y exchanges =              0
(PID.TID 0000.0001) //            Max. Y spins =              0
(PID.TID 0000.0001) //            Min. Y spins =     1000000000
(PID.TID 0000.0001) //          Total. Y spins =              0
(PID.TID 0000.0001) //            Avg. Y spins =       0.00E+00
(PID.TID 0000.0001) // o Tile number: 000065
(PID.TID 0000.0001) //         No. X exchanges =              0
(PID.TID 0000.0001) //            Max. X spins =              0
(PID.TID 0000.0001) //            Min. X spins =     1000000000
(PID.TID 0000.0001) //          Total. X spins =              0
(PID.TID 0000.0001) //            Avg. X spins =       0.00E+00
(PID.TID 0000.0001) //         No. Y exchanges =              0
(PID.TID 0000.0001) //            Max. Y spins =              0
(PID.TID 0000.0001) //            Min. Y spins =     1000000000
(PID.TID 0000.0001) //          Total. Y spins =              0
(PID.TID 0000.0001) //            Avg. Y spins =       0.00E+00
(PID.TID 0000.0001) // o Tile number: 000066
(PID.TID 0000.0001) //         No. X exchanges =              0
(PID.TID 0000.0001) //            Max. X spins =              0
(PID.TID 0000.0001) //            Min. X spins =     1000000000
(PID.TID 0000.0001) //          Total. X spins =              0
(PID.TID 0000.0001) //            Avg. X spins =       0.00E+00
(PID.TID 0000.0001) //         No. Y exchanges =              0
(PID.TID 0000.0001) //            Max. Y spins =              0
(PID.TID 0000.0001) //            Min. Y spins =     1000000000
(PID.TID 0000.0001) //          Total. Y spins =              0
(PID.TID 0000.0001) //            Avg. Y spins =       0.00E+00
(PID.TID 0000.0001) // o Tile number: 000067
(PID.TID 0000.0001) //         No. X exchanges =              0
(PID.TID 0000.0001) //            Max. X spins =              0
(PID.TID 0000.0001) //            Min. X spins =     1000000000
(PID.TID 0000.0001) //          Total. X spins =              0
(PID.TID 0000.0001) //            Avg. X spins =       0.00E+00
(PID.TID 0000.0001) //         No. Y exchanges =              0
(PID.TID 0000.0001) //            Max. Y spins =              0
(PID.TID 0000.0001) //            Min. Y spins =     1000000000
(PID.TID 0000.0001) //          Total. Y spins =              0
(PID.TID 0000.0001) //            Avg. Y spins =       0.00E+00
(PID.TID 0000.0001) // o Tile number: 000068
(PID.TID 0000.0001) //         No. X exchanges =              0
(PID.TID 0000.0001) //            Max. X spins =              0
(PID.TID 0000.0001) //            Min. X spins =     1000000000
(PID.TID 0000.0001) //          Total. X spins =              0
(PID.TID 0000.0001) //            Avg. X spins =       0.00E+00
(PID.TID 0000.0001) //         No. Y exchanges =              0
(PID.TID 0000.0001) //            Max. Y spins =              0
(PID.TID 0000.0001) //            Min. Y spins =     1000000000
(PID.TID 0000.0001) //          Total. Y spins =              0
(PID.TID 0000.0001) //            Avg. Y spins =       0.00E+00
(PID.TID 0000.0001) // o Tile number: 000069
(PID.TID 0000.0001) //         No. X exchanges =              0
(PID.TID 0000.0001) //            Max. X spins =              0
(PID.TID 0000.0001) //            Min. X spins =     1000000000
(PID.TID 0000.0001) //          Total. X spins =              0
(PID.TID 0000.0001) //            Avg. X spins =       0.00E+00
(PID.TID 0000.0001) //         No. Y exchanges =              0
(PID.TID 0000.0001) //            Max. Y spins =              0
(PID.TID 0000.0001) //            Min. Y spins =     1000000000
(PID.TID 0000.0001) //          Total. Y spins =              0
(PID.TID 0000.0001) //            Avg. Y spins =       0.00E+00
(PID.TID 0000.0001) // o Tile number: 000070
(PID.TID 0000.0001) //         No. X exchanges =              0
(PID.TID 0000.0001) //            Max. X spins =              0
(PID.TID 0000.0001) //            Min. X spins =     1000000000
(PID.TID 0000.0001) //          Total. X spins =              0
(PID.TID 0000.0001) //            Avg. X spins =       0.00E+00
(PID.TID 0000.0001) //         No. Y exchanges =              0
(PID.TID 0000.0001) //            Max. Y spins =              0
(PID.TID 0000.0001) //            Min. Y spins =     1000000000
(PID.TID 0000.0001) //          Total. Y spins =              0
(PID.TID 0000.0001) //            Avg. Y spins =       0.00E+00
(PID.TID 0000.0001) // o Tile number: 000071
(PID.TID 0000.0001) //         No. X exchanges =              0
(PID.TID 0000.0001) //            Max. X spins =              0
(PID.TID 0000.0001) //            Min. X spins =     1000000000
(PID.TID 0000.0001) //          Total. X spins =              0
(PID.TID 0000.0001) //            Avg. X spins =       0.00E+00
(PID.TID 0000.0001) //         No. Y exchanges =              0
(PID.TID 0000.0001) //            Max. Y spins =              0
(PID.TID 0000.0001) //            Min. Y spins =     1000000000
(PID.TID 0000.0001) //          Total. Y spins =              0
(PID.TID 0000.0001) //            Avg. Y spins =       0.00E+00
(PID.TID 0000.0001) // o Tile number: 000072
(PID.TID 0000.0001) //         No. X exchanges =              0
(PID.TID 0000.0001) //            Max. X spins =              0
(PID.TID 0000.0001) //            Min. X spins =     1000000000
(PID.TID 0000.0001) //          Total. X spins =              0
(PID.TID 0000.0001) //            Avg. X spins =       0.00E+00
(PID.TID 0000.0001) //         No. Y exchanges =              0
(PID.TID 0000.0001) //            Max. Y spins =              0
(PID.TID 0000.0001) //            Min. Y spins =     1000000000
(PID.TID 0000.0001) //          Total. Y spins =              0
(PID.TID 0000.0001) //            Avg. Y spins =       0.00E+00
(PID.TID 0000.0001) // o Tile number: 000073
(PID.TID 0000.0001) //         No. X exchanges =              0
(PID.TID 0000.0001) //            Max. X spins =              0
(PID.TID 0000.0001) //            Min. X spins =     1000000000
(PID.TID 0000.0001) //          Total. X spins =              0
(PID.TID 0000.0001) //            Avg. X spins =       0.00E+00
(PID.TID 0000.0001) //         No. Y exchanges =              0
(PID.TID 0000.0001) //            Max. Y spins =              0
(PID.TID 0000.0001) //            Min. Y spins =     1000000000
(PID.TID 0000.0001) //          Total. Y spins =              0
(PID.TID 0000.0001) //            Avg. Y spins =       0.00E+00
(PID.TID 0000.0001) // o Tile number: 000074
(PID.TID 0000.0001) //         No. X exchanges =              0
(PID.TID 0000.0001) //            Max. X spins =              0
(PID.TID 0000.0001) //            Min. X spins =     1000000000
(PID.TID 0000.0001) //          Total. X spins =              0
(PID.TID 0000.0001) //            Avg. X spins =       0.00E+00
(PID.TID 0000.0001) //         No. Y exchanges =              0
(PID.TID 0000.0001) //            Max. Y spins =              0
(PID.TID 0000.0001) //            Min. Y spins =     1000000000
(PID.TID 0000.0001) //          Total. Y spins =              0
(PID.TID 0000.0001) //            Avg. Y spins =       0.00E+00
(PID.TID 0000.0001) // o Tile number: 000075
(PID.TID 0000.0001) //         No. X exchanges =              0
(PID.TID 0000.0001) //            Max. X spins =              0
(PID.TID 0000.0001) //            Min. X spins =     1000000000
(PID.TID 0000.0001) //          Total. X spins =              0
(PID.TID 0000.0001) //            Avg. X spins =       0.00E+00
(PID.TID 0000.0001) //         No. Y exchanges =              0
(PID.TID 0000.0001) //            Max. Y spins =              0
(PID.TID 0000.0001) //            Min. Y spins =     1000000000
(PID.TID 0000.0001) //          Total. Y spins =              0
(PID.TID 0000.0001) //            Avg. Y spins =       0.00E+00
(PID.TID 0000.0001) // o Tile number: 000076
(PID.TID 0000.0001) //         No. X exchanges =              0
(PID.TID 0000.0001) //            Max. X spins =              0
(PID.TID 0000.0001) //            Min. X spins =     1000000000
(PID.TID 0000.0001) //          Total. X spins =              0
(PID.TID 0000.0001) //            Avg. X spins =       0.00E+00
(PID.TID 0000.0001) //         No. Y exchanges =              0
(PID.TID 0000.0001) //            Max. Y spins =              0
(PID.TID 0000.0001) //            Min. Y spins =     1000000000
(PID.TID 0000.0001) //          Total. Y spins =              0
(PID.TID 0000.0001) //            Avg. Y spins =       0.00E+00
(PID.TID 0000.0001) // o Tile number: 000077
(PID.TID 0000.0001) //         No. X exchanges =              0
(PID.TID 0000.0001) //            Max. X spins =              0
(PID.TID 0000.0001) //            Min. X spins =     1000000000
(PID.TID 0000.0001) //          Total. X spins =              0
(PID.TID 0000.0001) //            Avg. X spins =       0.00E+00
(PID.TID 0000.0001) //         No. Y exchanges =              0
(PID.TID 0000.0001) //            Max. Y spins =              0
(PID.TID 0000.0001) //            Min. Y spins =     1000000000
(PID.TID 0000.0001) //          Total. Y spins =              0
(PID.TID 0000.0001) //            Avg. Y spins =       0.00E+00
(PID.TID 0000.0001) // o Tile number: 000078
(PID.TID 0000.0001) //         No. X exchanges =              0
(PID.TID 0000.0001) //            Max. X spins =              0
(PID.TID 0000.0001) //            Min. X spins =     1000000000
(PID.TID 0000.0001) //          Total. X spins =              0
(PID.TID 0000.0001) //            Avg. X spins =       0.00E+00
(PID.TID 0000.0001) //         No. Y exchanges =              0
(PID.TID 0000.0001) //            Max. Y spins =              0
(PID.TID 0000.0001) //            Min. Y spins =     1000000000
(PID.TID 0000.0001) //          Total. Y spins =              0
(PID.TID 0000.0001) //            Avg. Y spins =       0.00E+00
(PID.TID 0000.0001) // o Tile number: 000079
(PID.TID 0000.0001) //         No. X exchanges =              0
(PID.TID 0000.0001) //            Max. X spins =              0
(PID.TID 0000.0001) //            Min. X spins =     1000000000
(PID.TID 0000.0001) //          Total. X spins =              0
(PID.TID 0000.0001) //            Avg. X spins =       0.00E+00
(PID.TID 0000.0001) //         No. Y exchanges =              0
(PID.TID 0000.0001) //            Max. Y spins =              0
(PID.TID 0000.0001) //            Min. Y spins =     1000000000
(PID.TID 0000.0001) //          Total. Y spins =              0
(PID.TID 0000.0001) //            Avg. Y spins =       0.00E+00
(PID.TID 0000.0001) // o Tile number: 000080
(PID.TID 0000.0001) //         No. X exchanges =              0
(PID.TID 0000.0001) //            Max. X spins =              0
(PID.TID 0000.0001) //            Min. X spins =     1000000000
(PID.TID 0000.0001) //          Total. X spins =              0
(PID.TID 0000.0001) //            Avg. X spins =       0.00E+00
(PID.TID 0000.0001) //         No. Y exchanges =              0
(PID.TID 0000.0001) //            Max. Y spins =              0
(PID.TID 0000.0001) //            Min. Y spins =     1000000000
(PID.TID 0000.0001) //          Total. Y spins =              0
(PID.TID 0000.0001) //            Avg. Y spins =       0.00E+00
(PID.TID 0000.0001) // o Tile number: 000081
(PID.TID 0000.0001) //         No. X exchanges =              0
(PID.TID 0000.0001) //            Max. X spins =              0
(PID.TID 0000.0001) //            Min. X spins =     1000000000
(PID.TID 0000.0001) //          Total. X spins =              0
(PID.TID 0000.0001) //            Avg. X spins =       0.00E+00
(PID.TID 0000.0001) //         No. Y exchanges =              0
(PID.TID 0000.0001) //            Max. Y spins =              0
(PID.TID 0000.0001) //            Min. Y spins =     1000000000
(PID.TID 0000.0001) //          Total. Y spins =              0
(PID.TID 0000.0001) //            Avg. Y spins =       0.00E+00
(PID.TID 0000.0001) // o Tile number: 000082
(PID.TID 0000.0001) //         No. X exchanges =              0
(PID.TID 0000.0001) //            Max. X spins =              0
(PID.TID 0000.0001) //            Min. X spins =     1000000000
(PID.TID 0000.0001) //          Total. X spins =              0
(PID.TID 0000.0001) //            Avg. X spins =       0.00E+00
(PID.TID 0000.0001) //         No. Y exchanges =              0
(PID.TID 0000.0001) //            Max. Y spins =              0
(PID.TID 0000.0001) //            Min. Y spins =     1000000000
(PID.TID 0000.0001) //          Total. Y spins =              0
(PID.TID 0000.0001) //            Avg. Y spins =       0.00E+00
(PID.TID 0000.0001) // o Tile number: 000083
(PID.TID 0000.0001) //         No. X exchanges =              0
(PID.TID 0000.0001) //            Max. X spins =              0
(PID.TID 0000.0001) //            Min. X spins =     1000000000
(PID.TID 0000.0001) //          Total. X spins =              0
(PID.TID 0000.0001) //            Avg. X spins =       0.00E+00
(PID.TID 0000.0001) //         No. Y exchanges =              0
(PID.TID 0000.0001) //            Max. Y spins =              0
(PID.TID 0000.0001) //            Min. Y spins =     1000000000
(PID.TID 0000.0001) //          Total. Y spins =              0
(PID.TID 0000.0001) //            Avg. Y spins =       0.00E+00
(PID.TID 0000.0001) // o Tile number: 000084
(PID.TID 0000.0001) //         No. X exchanges =              0
(PID.TID 0000.0001) //            Max. X spins =              0
(PID.TID 0000.0001) //            Min. X spins =     1000000000
(PID.TID 0000.0001) //          Total. X spins =              0
(PID.TID 0000.0001) //            Avg. X spins =       0.00E+00
(PID.TID 0000.0001) //         No. Y exchanges =              0
(PID.TID 0000.0001) //            Max. Y spins =              0
(PID.TID 0000.0001) //            Min. Y spins =     1000000000
(PID.TID 0000.0001) //          Total. Y spins =              0
(PID.TID 0000.0001) //            Avg. Y spins =       0.00E+00
(PID.TID 0000.0001) // o Tile number: 000085
(PID.TID 0000.0001) //         No. X exchanges =              0
(PID.TID 0000.0001) //            Max. X spins =              0
(PID.TID 0000.0001) //            Min. X spins =     1000000000
(PID.TID 0000.0001) //          Total. X spins =              0
(PID.TID 0000.0001) //            Avg. X spins =       0.00E+00
(PID.TID 0000.0001) //         No. Y exchanges =              0
(PID.TID 0000.0001) //            Max. Y spins =              0
(PID.TID 0000.0001) //            Min. Y spins =     1000000000
(PID.TID 0000.0001) //          Total. Y spins =              0
(PID.TID 0000.0001) //            Avg. Y spins =       0.00E+00
(PID.TID 0000.0001) // o Tile number: 000086
(PID.TID 0000.0001) //         No. X exchanges =              0
(PID.TID 0000.0001) //            Max. X spins =              0
(PID.TID 0000.0001) //            Min. X spins =     1000000000
(PID.TID 0000.0001) //          Total. X spins =              0
(PID.TID 0000.0001) //            Avg. X spins =       0.00E+00
(PID.TID 0000.0001) //         No. Y exchanges =              0
(PID.TID 0000.0001) //            Max. Y spins =              0
(PID.TID 0000.0001) //            Min. Y spins =     1000000000
(PID.TID 0000.0001) //          Total. Y spins =              0
(PID.TID 0000.0001) //            Avg. Y spins =       0.00E+00
(PID.TID 0000.0001) // o Tile number: 000087
(PID.TID 0000.0001) //         No. X exchanges =              0
(PID.TID 0000.0001) //            Max. X spins =              0
(PID.TID 0000.0001) //            Min. X spins =     1000000000
(PID.TID 0000.0001) //          Total. X spins =              0
(PID.TID 0000.0001) //            Avg. X spins =       0.00E+00
(PID.TID 0000.0001) //         No. Y exchanges =              0
(PID.TID 0000.0001) //            Max. Y spins =              0
(PID.TID 0000.0001) //            Min. Y spins =     1000000000
(PID.TID 0000.0001) //          Total. Y spins =              0
(PID.TID 0000.0001) //            Avg. Y spins =       0.00E+00
(PID.TID 0000.0001) // o Tile number: 000088
(PID.TID 0000.0001) //         No. X exchanges =              0
(PID.TID 0000.0001) //            Max. X spins =              0
(PID.TID 0000.0001) //            Min. X spins =     1000000000
(PID.TID 0000.0001) //          Total. X spins =              0
(PID.TID 0000.0001) //            Avg. X spins =       0.00E+00
(PID.TID 0000.0001) //         No. Y exchanges =              0
(PID.TID 0000.0001) //            Max. Y spins =              0
(PID.TID 0000.0001) //            Min. Y spins =     1000000000
(PID.TID 0000.0001) //          Total. Y spins =              0
(PID.TID 0000.0001) //            Avg. Y spins =       0.00E+00
(PID.TID 0000.0001) // o Tile number: 000089
(PID.TID 0000.0001) //         No. X exchanges =              0
(PID.TID 0000.0001) //            Max. X spins =              0
(PID.TID 0000.0001) //            Min. X spins =     1000000000
(PID.TID 0000.0001) //          Total. X spins =              0
(PID.TID 0000.0001) //            Avg. X spins =       0.00E+00
(PID.TID 0000.0001) //         No. Y exchanges =              0
(PID.TID 0000.0001) //            Max. Y spins =              0
(PID.TID 0000.0001) //            Min. Y spins =     1000000000
(PID.TID 0000.0001) //          Total. Y spins =              0
(PID.TID 0000.0001) //            Avg. Y spins =       0.00E+00
(PID.TID 0000.0001) // o Tile number: 000090
(PID.TID 0000.0001) //         No. X exchanges =              0
(PID.TID 0000.0001) //            Max. X spins =              0
(PID.TID 0000.0001) //            Min. X spins =     1000000000
(PID.TID 0000.0001) //          Total. X spins =              0
(PID.TID 0000.0001) //            Avg. X spins =       0.00E+00
(PID.TID 0000.0001) //         No. Y exchanges =              0
(PID.TID 0000.0001) //            Max. Y spins =              0
(PID.TID 0000.0001) //            Min. Y spins =     1000000000
(PID.TID 0000.0001) //          Total. Y spins =              0
(PID.TID 0000.0001) //            Avg. Y spins =       0.00E+00
(PID.TID 0000.0001) // o Tile number: 000091
(PID.TID 0000.0001) //         No. X exchanges =              0
(PID.TID 0000.0001) //            Max. X spins =              0
(PID.TID 0000.0001) //            Min. X spins =     1000000000
(PID.TID 0000.0001) //          Total. X spins =              0
(PID.TID 0000.0001) //            Avg. X spins =       0.00E+00
(PID.TID 0000.0001) //         No. Y exchanges =              0
(PID.TID 0000.0001) //            Max. Y spins =              0
(PID.TID 0000.0001) //            Min. Y spins =     1000000000
(PID.TID 0000.0001) //          Total. Y spins =              0
(PID.TID 0000.0001) //            Avg. Y spins =       0.00E+00
(PID.TID 0000.0001) // o Tile number: 000092
(PID.TID 0000.0001) //         No. X exchanges =              0
(PID.TID 0000.0001) //            Max. X spins =              0
(PID.TID 0000.0001) //            Min. X spins =     1000000000
(PID.TID 0000.0001) //          Total. X spins =              0
(PID.TID 0000.0001) //            Avg. X spins =       0.00E+00
(PID.TID 0000.0001) //         No. Y exchanges =              0
(PID.TID 0000.0001) //            Max. Y spins =              0
(PID.TID 0000.0001) //            Min. Y spins =     1000000000
(PID.TID 0000.0001) //          Total. Y spins =              0
(PID.TID 0000.0001) //            Avg. Y spins =       0.00E+00
(PID.TID 0000.0001) // o Tile number: 000093
(PID.TID 0000.0001) //         No. X exchanges =              0
(PID.TID 0000.0001) //            Max. X spins =              0
(PID.TID 0000.0001) //            Min. X spins =     1000000000
(PID.TID 0000.0001) //          Total. X spins =              0
(PID.TID 0000.0001) //            Avg. X spins =       0.00E+00
(PID.TID 0000.0001) //         No. Y exchanges =              0
(PID.TID 0000.0001) //            Max. Y spins =              0
(PID.TID 0000.0001) //            Min. Y spins =     1000000000
(PID.TID 0000.0001) //          Total. Y spins =              0
(PID.TID 0000.0001) //            Avg. Y spins =       0.00E+00
(PID.TID 0000.0001) // o Tile number: 000094
(PID.TID 0000.0001) //         No. X exchanges =              0
(PID.TID 0000.0001) //            Max. X spins =              0
(PID.TID 0000.0001) //            Min. X spins =     1000000000
(PID.TID 0000.0001) //          Total. X spins =              0
(PID.TID 0000.0001) //            Avg. X spins =       0.00E+00
(PID.TID 0000.0001) //         No. Y exchanges =              0
(PID.TID 0000.0001) //            Max. Y spins =              0
(PID.TID 0000.0001) //            Min. Y spins =     1000000000
(PID.TID 0000.0001) //          Total. Y spins =              0
(PID.TID 0000.0001) //            Avg. Y spins =       0.00E+00
(PID.TID 0000.0001) // o Tile number: 000095
(PID.TID 0000.0001) //         No. X exchanges =              0
(PID.TID 0000.0001) //            Max. X spins =              0
(PID.TID 0000.0001) //            Min. X spins =     1000000000
(PID.TID 0000.0001) //          Total. X spins =              0
(PID.TID 0000.0001) //            Avg. X spins =       0.00E+00
(PID.TID 0000.0001) //         No. Y exchanges =              0
(PID.TID 0000.0001) //            Max. Y spins =              0
(PID.TID 0000.0001) //            Min. Y spins =     1000000000
(PID.TID 0000.0001) //          Total. Y spins =              0
(PID.TID 0000.0001) //            Avg. Y spins =       0.00E+00
(PID.TID 0000.0001) // o Tile number: 000096
(PID.TID 0000.0001) //         No. X exchanges =              0
(PID.TID 0000.0001) //            Max. X spins =              0
(PID.TID 0000.0001) //            Min. X spins =     1000000000
(PID.TID 0000.0001) //          Total. X spins =              0
(PID.TID 0000.0001) //            Avg. X spins =       0.00E+00
(PID.TID 0000.0001) //         No. Y exchanges =              0
(PID.TID 0000.0001) //            Max. Y spins =              0
(PID.TID 0000.0001) //            Min. Y spins =     1000000000
(PID.TID 0000.0001) //          Total. Y spins =              0
(PID.TID 0000.0001) //            Avg. Y spins =       0.00E+00
(PID.TID 0000.0001) // o Tile number: 000097
(PID.TID 0000.0001) //         No. X exchanges =              0
(PID.TID 0000.0001) //            Max. X spins =              0
(PID.TID 0000.0001) //            Min. X spins =     1000000000
(PID.TID 0000.0001) //          Total. X spins =              0
(PID.TID 0000.0001) //            Avg. X spins =       0.00E+00
(PID.TID 0000.0001) //         No. Y exchanges =              0
(PID.TID 0000.0001) //            Max. Y spins =              0
(PID.TID 0000.0001) //            Min. Y spins =     1000000000
(PID.TID 0000.0001) //          Total. Y spins =              0
(PID.TID 0000.0001) //            Avg. Y spins =       0.00E+00
(PID.TID 0000.0001) // o Tile number: 000098
(PID.TID 0000.0001) //         No. X exchanges =              0
(PID.TID 0000.0001) //            Max. X spins =              0
(PID.TID 0000.0001) //            Min. X spins =     1000000000
(PID.TID 0000.0001) //          Total. X spins =              0
(PID.TID 0000.0001) //            Avg. X spins =       0.00E+00
(PID.TID 0000.0001) //         No. Y exchanges =              0
(PID.TID 0000.0001) //            Max. Y spins =              0
(PID.TID 0000.0001) //            Min. Y spins =     1000000000
(PID.TID 0000.0001) //          Total. Y spins =              0
(PID.TID 0000.0001) //            Avg. Y spins =       0.00E+00
(PID.TID 0000.0001) // o Tile number: 000099
(PID.TID 0000.0001) //         No. X exchanges =              0
(PID.TID 0000.0001) //            Max. X spins =              0
(PID.TID 0000.0001) //            Min. X spins =     1000000000
(PID.TID 0000.0001) //          Total. X spins =              0
(PID.TID 0000.0001) //            Avg. X spins =       0.00E+00
(PID.TID 0000.0001) //         No. Y exchanges =              0
(PID.TID 0000.0001) //            Max. Y spins =              0
(PID.TID 0000.0001) //            Min. Y spins =     1000000000
(PID.TID 0000.0001) //          Total. Y spins =              0
(PID.TID 0000.0001) //            Avg. Y spins =       0.00E+00
(PID.TID 0000.0001) // o Tile number: 000100
(PID.TID 0000.0001) //         No. X exchanges =              0
(PID.TID 0000.0001) //            Max. X spins =              0
(PID.TID 0000.0001) //            Min. X spins =     1000000000
(PID.TID 0000.0001) //          Total. X spins =              0
(PID.TID 0000.0001) //            Avg. X spins =       0.00E+00
(PID.TID 0000.0001) //         No. Y exchanges =              0
(PID.TID 0000.0001) //            Max. Y spins =              0
(PID.TID 0000.0001) //            Min. Y spins =     1000000000
(PID.TID 0000.0001) //          Total. Y spins =              0
(PID.TID 0000.0001) //            Avg. Y spins =       0.00E+00
(PID.TID 0000.0001) // o Tile number: 000101
(PID.TID 0000.0001) //         No. X exchanges =              0
(PID.TID 0000.0001) //            Max. X spins =              0
(PID.TID 0000.0001) //            Min. X spins =     1000000000
(PID.TID 0000.0001) //          Total. X spins =              0
(PID.TID 0000.0001) //            Avg. X spins =       0.00E+00
(PID.TID 0000.0001) //         No. Y exchanges =              0
(PID.TID 0000.0001) //            Max. Y spins =              0
(PID.TID 0000.0001) //            Min. Y spins =     1000000000
(PID.TID 0000.0001) //          Total. Y spins =              0
(PID.TID 0000.0001) //            Avg. Y spins =       0.00E+00
(PID.TID 0000.0001) // o Tile number: 000102
(PID.TID 0000.0001) //         No. X exchanges =              0
(PID.TID 0000.0001) //            Max. X spins =              0
(PID.TID 0000.0001) //            Min. X spins =     1000000000
(PID.TID 0000.0001) //          Total. X spins =              0
(PID.TID 0000.0001) //            Avg. X spins =       0.00E+00
(PID.TID 0000.0001) //         No. Y exchanges =              0
(PID.TID 0000.0001) //            Max. Y spins =              0
(PID.TID 0000.0001) //            Min. Y spins =     1000000000
(PID.TID 0000.0001) //          Total. Y spins =              0
(PID.TID 0000.0001) //            Avg. Y spins =       0.00E+00
(PID.TID 0000.0001) // o Tile number: 000103
(PID.TID 0000.0001) //         No. X exchanges =              0
(PID.TID 0000.0001) //            Max. X spins =              0
(PID.TID 0000.0001) //            Min. X spins =     1000000000
(PID.TID 0000.0001) //          Total. X spins =              0
(PID.TID 0000.0001) //            Avg. X spins =       0.00E+00
(PID.TID 0000.0001) //         No. Y exchanges =              0
(PID.TID 0000.0001) //            Max. Y spins =              0
(PID.TID 0000.0001) //            Min. Y spins =     1000000000
(PID.TID 0000.0001) //          Total. Y spins =              0
(PID.TID 0000.0001) //            Avg. Y spins =       0.00E+00
(PID.TID 0000.0001) // o Tile number: 000104
(PID.TID 0000.0001) //         No. X exchanges =              0
(PID.TID 0000.0001) //            Max. X spins =              0
(PID.TID 0000.0001) //            Min. X spins =     1000000000
(PID.TID 0000.0001) //          Total. X spins =              0
(PID.TID 0000.0001) //            Avg. X spins =       0.00E+00
(PID.TID 0000.0001) //         No. Y exchanges =              0
(PID.TID 0000.0001) //            Max. Y spins =              0
(PID.TID 0000.0001) //            Min. Y spins =     1000000000
(PID.TID 0000.0001) //          Total. Y spins =              0
(PID.TID 0000.0001) //            Avg. Y spins =       0.00E+00
(PID.TID 0000.0001) // o Tile number: 000105
(PID.TID 0000.0001) //         No. X exchanges =              0
(PID.TID 0000.0001) //            Max. X spins =              0
(PID.TID 0000.0001) //            Min. X spins =     1000000000
(PID.TID 0000.0001) //          Total. X spins =              0
(PID.TID 0000.0001) //            Avg. X spins =       0.00E+00
(PID.TID 0000.0001) //         No. Y exchanges =              0
(PID.TID 0000.0001) //            Max. Y spins =              0
(PID.TID 0000.0001) //            Min. Y spins =     1000000000
(PID.TID 0000.0001) //          Total. Y spins =              0
(PID.TID 0000.0001) //            Avg. Y spins =       0.00E+00
(PID.TID 0000.0001) // o Tile number: 000106
(PID.TID 0000.0001) //         No. X exchanges =              0
(PID.TID 0000.0001) //            Max. X spins =              0
(PID.TID 0000.0001) //            Min. X spins =     1000000000
(PID.TID 0000.0001) //          Total. X spins =              0
(PID.TID 0000.0001) //            Avg. X spins =       0.00E+00
(PID.TID 0000.0001) //         No. Y exchanges =              0
(PID.TID 0000.0001) //            Max. Y spins =              0
(PID.TID 0000.0001) //            Min. Y spins =     1000000000
(PID.TID 0000.0001) //          Total. Y spins =              0
(PID.TID 0000.0001) //            Avg. Y spins =       0.00E+00
(PID.TID 0000.0001) // o Tile number: 000107
(PID.TID 0000.0001) //         No. X exchanges =              0
(PID.TID 0000.0001) //            Max. X spins =              0
(PID.TID 0000.0001) //            Min. X spins =     1000000000
(PID.TID 0000.0001) //          Total. X spins =              0
(PID.TID 0000.0001) //            Avg. X spins =       0.00E+00
(PID.TID 0000.0001) //         No. Y exchanges =              0
(PID.TID 0000.0001) //            Max. Y spins =              0
(PID.TID 0000.0001) //            Min. Y spins =     1000000000
(PID.TID 0000.0001) //          Total. Y spins =              0
(PID.TID 0000.0001) //            Avg. Y spins =       0.00E+00
(PID.TID 0000.0001) // o Tile number: 000108
(PID.TID 0000.0001) //         No. X exchanges =              0
(PID.TID 0000.0001) //            Max. X spins =              0
(PID.TID 0000.0001) //            Min. X spins =     1000000000
(PID.TID 0000.0001) //          Total. X spins =              0
(PID.TID 0000.0001) //            Avg. X spins =       0.00E+00
(PID.TID 0000.0001) //         No. Y exchanges =              0
(PID.TID 0000.0001) //            Max. Y spins =              0
(PID.TID 0000.0001) //            Min. Y spins =     1000000000
(PID.TID 0000.0001) //          Total. Y spins =              0
(PID.TID 0000.0001) //            Avg. Y spins =       0.00E+00
(PID.TID 0000.0001) // o Tile number: 000109
(PID.TID 0000.0001) //         No. X exchanges =              0
(PID.TID 0000.0001) //            Max. X spins =              0
(PID.TID 0000.0001) //            Min. X spins =     1000000000
(PID.TID 0000.0001) //          Total. X spins =              0
(PID.TID 0000.0001) //            Avg. X spins =       0.00E+00
(PID.TID 0000.0001) //         No. Y exchanges =              0
(PID.TID 0000.0001) //            Max. Y spins =              0
(PID.TID 0000.0001) //            Min. Y spins =     1000000000
(PID.TID 0000.0001) //          Total. Y spins =              0
(PID.TID 0000.0001) //            Avg. Y spins =       0.00E+00
(PID.TID 0000.0001) // o Tile number: 000110
(PID.TID 0000.0001) //         No. X exchanges =              0
(PID.TID 0000.0001) //            Max. X spins =              0
(PID.TID 0000.0001) //            Min. X spins =     1000000000
(PID.TID 0000.0001) //          Total. X spins =              0
(PID.TID 0000.0001) //            Avg. X spins =       0.00E+00
(PID.TID 0000.0001) //         No. Y exchanges =              0
(PID.TID 0000.0001) //            Max. Y spins =              0
(PID.TID 0000.0001) //            Min. Y spins =     1000000000
(PID.TID 0000.0001) //          Total. Y spins =              0
(PID.TID 0000.0001) //            Avg. Y spins =       0.00E+00
(PID.TID 0000.0001) // o Tile number: 000111
(PID.TID 0000.0001) //         No. X exchanges =              0
(PID.TID 0000.0001) //            Max. X spins =              0
(PID.TID 0000.0001) //            Min. X spins =     1000000000
(PID.TID 0000.0001) //          Total. X spins =              0
(PID.TID 0000.0001) //            Avg. X spins =       0.00E+00
(PID.TID 0000.0001) //         No. Y exchanges =              0
(PID.TID 0000.0001) //            Max. Y spins =              0
(PID.TID 0000.0001) //            Min. Y spins =     1000000000
(PID.TID 0000.0001) //          Total. Y spins =              0
(PID.TID 0000.0001) //            Avg. Y spins =       0.00E+00
(PID.TID 0000.0001) // o Tile number: 000112
(PID.TID 0000.0001) //         No. X exchanges =              0
(PID.TID 0000.0001) //            Max. X spins =              0
(PID.TID 0000.0001) //            Min. X spins =     1000000000
(PID.TID 0000.0001) //          Total. X spins =              0
(PID.TID 0000.0001) //            Avg. X spins =       0.00E+00
(PID.TID 0000.0001) //         No. Y exchanges =              0
(PID.TID 0000.0001) //            Max. Y spins =              0
(PID.TID 0000.0001) //            Min. Y spins =     1000000000
(PID.TID 0000.0001) //          Total. Y spins =              0
(PID.TID 0000.0001) //            Avg. Y spins =       0.00E+00
(PID.TID 0000.0001) // o Tile number: 000113
(PID.TID 0000.0001) //         No. X exchanges =              0
(PID.TID 0000.0001) //            Max. X spins =              0
(PID.TID 0000.0001) //            Min. X spins =     1000000000
(PID.TID 0000.0001) //          Total. X spins =              0
(PID.TID 0000.0001) //            Avg. X spins =       0.00E+00
(PID.TID 0000.0001) //         No. Y exchanges =              0
(PID.TID 0000.0001) //            Max. Y spins =              0
(PID.TID 0000.0001) //            Min. Y spins =     1000000000
(PID.TID 0000.0001) //          Total. Y spins =              0
(PID.TID 0000.0001) //            Avg. Y spins =       0.00E+00
(PID.TID 0000.0001) // o Tile number: 000114
(PID.TID 0000.0001) //         No. X exchanges =              0
(PID.TID 0000.0001) //            Max. X spins =              0
(PID.TID 0000.0001) //            Min. X spins =     1000000000
(PID.TID 0000.0001) //          Total. X spins =              0
(PID.TID 0000.0001) //            Avg. X spins =       0.00E+00
(PID.TID 0000.0001) //         No. Y exchanges =              0
(PID.TID 0000.0001) //            Max. Y spins =              0
(PID.TID 0000.0001) //            Min. Y spins =     1000000000
(PID.TID 0000.0001) //          Total. Y spins =              0
(PID.TID 0000.0001) //            Avg. Y spins =       0.00E+00
(PID.TID 0000.0001) // o Tile number: 000115
(PID.TID 0000.0001) //         No. X exchanges =              0
(PID.TID 0000.0001) //            Max. X spins =              0
(PID.TID 0000.0001) //            Min. X spins =     1000000000
(PID.TID 0000.0001) //          Total. X spins =              0
(PID.TID 0000.0001) //            Avg. X spins =       0.00E+00
(PID.TID 0000.0001) //         No. Y exchanges =              0
(PID.TID 0000.0001) //            Max. Y spins =              0
(PID.TID 0000.0001) //            Min. Y spins =     1000000000
(PID.TID 0000.0001) //          Total. Y spins =              0
(PID.TID 0000.0001) //            Avg. Y spins =       0.00E+00
(PID.TID 0000.0001) // o Tile number: 000116
(PID.TID 0000.0001) //         No. X exchanges =              0
(PID.TID 0000.0001) //            Max. X spins =              0
(PID.TID 0000.0001) //            Min. X spins =     1000000000
(PID.TID 0000.0001) //          Total. X spins =              0
(PID.TID 0000.0001) //            Avg. X spins =       0.00E+00
(PID.TID 0000.0001) //         No. Y exchanges =              0
(PID.TID 0000.0001) //            Max. Y spins =              0
(PID.TID 0000.0001) //            Min. Y spins =     1000000000
(PID.TID 0000.0001) //          Total. Y spins =              0
(PID.TID 0000.0001) //            Avg. Y spins =       0.00E+00
(PID.TID 0000.0001) // o Tile number: 000117
(PID.TID 0000.0001) //         No. X exchanges =              0
(PID.TID 0000.0001) //            Max. X spins =              0
(PID.TID 0000.0001) //            Min. X spins =     1000000000
(PID.TID 0000.0001) //          Total. X spins =              0
(PID.TID 0000.0001) //            Avg. X spins =       0.00E+00
(PID.TID 0000.0001) //         No. Y exchanges =              0
(PID.TID 0000.0001) //            Max. Y spins =              0
(PID.TID 0000.0001) //            Min. Y spins =     1000000000
(PID.TID 0000.0001) //          Total. Y spins =              0
(PID.TID 0000.0001) //            Avg. Y spins =       0.00E+00
(PID.TID 0000.0001) // o Tile number: 000118
(PID.TID 0000.0001) //         No. X exchanges =              0
(PID.TID 0000.0001) //            Max. X spins =              0
(PID.TID 0000.0001) //            Min. X spins =     1000000000
(PID.TID 0000.0001) //          Total. X spins =              0
(PID.TID 0000.0001) //            Avg. X spins =       0.00E+00
(PID.TID 0000.0001) //         No. Y exchanges =              0
(PID.TID 0000.0001) //            Max. Y spins =              0
(PID.TID 0000.0001) //            Min. Y spins =     1000000000
(PID.TID 0000.0001) //          Total. Y spins =              0
(PID.TID 0000.0001) //            Avg. Y spins =       0.00E+00
(PID.TID 0000.0001) // o Tile number: 000119
(PID.TID 0000.0001) //         No. X exchanges =              0
(PID.TID 0000.0001) //            Max. X spins =              0
(PID.TID 0000.0001) //            Min. X spins =     1000000000
(PID.TID 0000.0001) //          Total. X spins =              0
(PID.TID 0000.0001) //            Avg. X spins =       0.00E+00
(PID.TID 0000.0001) //         No. Y exchanges =              0
(PID.TID 0000.0001) //            Max. Y spins =              0
(PID.TID 0000.0001) //            Min. Y spins =     1000000000
(PID.TID 0000.0001) //          Total. Y spins =              0
(PID.TID 0000.0001) //            Avg. Y spins =       0.00E+00
(PID.TID 0000.0001) // o Tile number: 000120
(PID.TID 0000.0001) //         No. X exchanges =              0
(PID.TID 0000.0001) //            Max. X spins =              0
(PID.TID 0000.0001) //            Min. X spins =     1000000000
(PID.TID 0000.0001) //          Total. X spins =              0
(PID.TID 0000.0001) //            Avg. X spins =       0.00E+00
(PID.TID 0000.0001) //         No. Y exchanges =              0
(PID.TID 0000.0001) //            Max. Y spins =              0
(PID.TID 0000.0001) //            Min. Y spins =     1000000000
(PID.TID 0000.0001) //          Total. Y spins =              0
(PID.TID 0000.0001) //            Avg. Y spins =       0.00E+00
(PID.TID 0000.0001) // o Tile number: 000121
(PID.TID 0000.0001) //         No. X exchanges =              0
(PID.TID 0000.0001) //            Max. X spins =              0
(PID.TID 0000.0001) //            Min. X spins =     1000000000
(PID.TID 0000.0001) //          Total. X spins =              0
(PID.TID 0000.0001) //            Avg. X spins =       0.00E+00
(PID.TID 0000.0001) //         No. Y exchanges =              0
(PID.TID 0000.0001) //            Max. Y spins =              0
(PID.TID 0000.0001) //            Min. Y spins =     1000000000
(PID.TID 0000.0001) //          Total. Y spins =              0
(PID.TID 0000.0001) //            Avg. Y spins =       0.00E+00
(PID.TID 0000.0001) // o Tile number: 000122
(PID.TID 0000.0001) //         No. X exchanges =              0
(PID.TID 0000.0001) //            Max. X spins =              0
(PID.TID 0000.0001) //            Min. X spins =     1000000000
(PID.TID 0000.0001) //          Total. X spins =              0
(PID.TID 0000.0001) //            Avg. X spins =       0.00E+00
(PID.TID 0000.0001) //         No. Y exchanges =              0
(PID.TID 0000.0001) //            Max. Y spins =              0
(PID.TID 0000.0001) //            Min. Y spins =     1000000000
(PID.TID 0000.0001) //          Total. Y spins =              0
(PID.TID 0000.0001) //            Avg. Y spins =       0.00E+00
(PID.TID 0000.0001) // o Tile number: 000123
(PID.TID 0000.0001) //         No. X exchanges =              0
(PID.TID 0000.0001) //            Max. X spins =              0
(PID.TID 0000.0001) //            Min. X spins =     1000000000
(PID.TID 0000.0001) //          Total. X spins =              0
(PID.TID 0000.0001) //            Avg. X spins =       0.00E+00
(PID.TID 0000.0001) //         No. Y exchanges =              0
(PID.TID 0000.0001) //            Max. Y spins =              0
(PID.TID 0000.0001) //            Min. Y spins =     1000000000
(PID.TID 0000.0001) //          Total. Y spins =              0
(PID.TID 0000.0001) //            Avg. Y spins =       0.00E+00
(PID.TID 0000.0001) // o Tile number: 000124
(PID.TID 0000.0001) //         No. X exchanges =              0
(PID.TID 0000.0001) //            Max. X spins =              0
(PID.TID 0000.0001) //            Min. X spins =     1000000000
(PID.TID 0000.0001) //          Total. X spins =              0
(PID.TID 0000.0001) //            Avg. X spins =       0.00E+00
(PID.TID 0000.0001) //         No. Y exchanges =              0
(PID.TID 0000.0001) //            Max. Y spins =              0
(PID.TID 0000.0001) //            Min. Y spins =     1000000000
(PID.TID 0000.0001) //          Total. Y spins =              0
(PID.TID 0000.0001) //            Avg. Y spins =       0.00E+00
(PID.TID 0000.0001) // o Tile number: 000125
(PID.TID 0000.0001) //         No. X exchanges =              0
(PID.TID 0000.0001) //            Max. X spins =              0
(PID.TID 0000.0001) //            Min. X spins =     1000000000
(PID.TID 0000.0001) //          Total. X spins =              0
(PID.TID 0000.0001) //            Avg. X spins =       0.00E+00
(PID.TID 0000.0001) //         No. Y exchanges =              0
(PID.TID 0000.0001) //            Max. Y spins =              0
(PID.TID 0000.0001) //            Min. Y spins =     1000000000
(PID.TID 0000.0001) //          Total. Y spins =              0
(PID.TID 0000.0001) //            Avg. Y spins =       0.00E+00
(PID.TID 0000.0001) // o Tile number: 000126
(PID.TID 0000.0001) //         No. X exchanges =              0
(PID.TID 0000.0001) //            Max. X spins =              0
(PID.TID 0000.0001) //            Min. X spins =     1000000000
(PID.TID 0000.0001) //          Total. X spins =              0
(PID.TID 0000.0001) //            Avg. X spins =       0.00E+00
(PID.TID 0000.0001) //         No. Y exchanges =              0
(PID.TID 0000.0001) //            Max. Y spins =              0
(PID.TID 0000.0001) //            Min. Y spins =     1000000000
(PID.TID 0000.0001) //          Total. Y spins =              0
(PID.TID 0000.0001) //            Avg. Y spins =       0.00E+00
(PID.TID 0000.0001) // o Tile number: 000127
(PID.TID 0000.0001) //         No. X exchanges =              0
(PID.TID 0000.0001) //            Max. X spins =              0
(PID.TID 0000.0001) //            Min. X spins =     1000000000
(PID.TID 0000.0001) //          Total. X spins =              0
(PID.TID 0000.0001) //            Avg. X spins =       0.00E+00
(PID.TID 0000.0001) //         No. Y exchanges =              0
(PID.TID 0000.0001) //            Max. Y spins =              0
(PID.TID 0000.0001) //            Min. Y spins =     1000000000
(PID.TID 0000.0001) //          Total. Y spins =              0
(PID.TID 0000.0001) //            Avg. Y spins =       0.00E+00
(PID.TID 0000.0001) // o Tile number: 000128
(PID.TID 0000.0001) //         No. X exchanges =              0
(PID.TID 0000.0001) //            Max. X spins =              0
(PID.TID 0000.0001) //            Min. X spins =     1000000000
(PID.TID 0000.0001) //          Total. X spins =              0
(PID.TID 0000.0001) //            Avg. X spins =       0.00E+00
(PID.TID 0000.0001) //         No. Y exchanges =              0
(PID.TID 0000.0001) //            Max. Y spins =              0
(PID.TID 0000.0001) //            Min. Y spins =     1000000000
(PID.TID 0000.0001) //          Total. Y spins =              0
(PID.TID 0000.0001) //            Avg. Y spins =       0.00E+00
(PID.TID 0000.0001) // o Tile number: 000129
(PID.TID 0000.0001) //         No. X exchanges =              0
(PID.TID 0000.0001) //            Max. X spins =              0
(PID.TID 0000.0001) //            Min. X spins =     1000000000
(PID.TID 0000.0001) //          Total. X spins =              0
(PID.TID 0000.0001) //            Avg. X spins =       0.00E+00
(PID.TID 0000.0001) //         No. Y exchanges =              0
(PID.TID 0000.0001) //            Max. Y spins =              0
(PID.TID 0000.0001) //            Min. Y spins =     1000000000
(PID.TID 0000.0001) //          Total. Y spins =              0
(PID.TID 0000.0001) //            Avg. Y spins =       0.00E+00
(PID.TID 0000.0001) // o Tile number: 000130
(PID.TID 0000.0001) //         No. X exchanges =              0
(PID.TID 0000.0001) //            Max. X spins =              0
(PID.TID 0000.0001) //            Min. X spins =     1000000000
(PID.TID 0000.0001) //          Total. X spins =              0
(PID.TID 0000.0001) //            Avg. X spins =       0.00E+00
(PID.TID 0000.0001) //         No. Y exchanges =              0
(PID.TID 0000.0001) //            Max. Y spins =              0
(PID.TID 0000.0001) //            Min. Y spins =     1000000000
(PID.TID 0000.0001) //          Total. Y spins =              0
(PID.TID 0000.0001) //            Avg. Y spins =       0.00E+00
(PID.TID 0000.0001) // o Tile number: 000131
(PID.TID 0000.0001) //         No. X exchanges =              0
(PID.TID 0000.0001) //            Max. X spins =              0
(PID.TID 0000.0001) //            Min. X spins =     1000000000
(PID.TID 0000.0001) //          Total. X spins =              0
(PID.TID 0000.0001) //            Avg. X spins =       0.00E+00
(PID.TID 0000.0001) //         No. Y exchanges =              0
(PID.TID 0000.0001) //            Max. Y spins =              0
(PID.TID 0000.0001) //            Min. Y spins =     1000000000
(PID.TID 0000.0001) //          Total. Y spins =              0
(PID.TID 0000.0001) //            Avg. Y spins =       0.00E+00
(PID.TID 0000.0001) // o Tile number: 000132
(PID.TID 0000.0001) //         No. X exchanges =              0
(PID.TID 0000.0001) //            Max. X spins =              0
(PID.TID 0000.0001) //            Min. X spins =     1000000000
(PID.TID 0000.0001) //          Total. X spins =              0
(PID.TID 0000.0001) //            Avg. X spins =       0.00E+00
(PID.TID 0000.0001) //         No. Y exchanges =              0
(PID.TID 0000.0001) //            Max. Y spins =              0
(PID.TID 0000.0001) //            Min. Y spins =     1000000000
(PID.TID 0000.0001) //          Total. Y spins =              0
(PID.TID 0000.0001) //            Avg. Y spins =       0.00E+00
(PID.TID 0000.0001) // o Tile number: 000133
(PID.TID 0000.0001) //         No. X exchanges =              0
(PID.TID 0000.0001) //            Max. X spins =              0
(PID.TID 0000.0001) //            Min. X spins =     1000000000
(PID.TID 0000.0001) //          Total. X spins =              0
(PID.TID 0000.0001) //            Avg. X spins =       0.00E+00
(PID.TID 0000.0001) //         No. Y exchanges =              0
(PID.TID 0000.0001) //            Max. Y spins =              0
(PID.TID 0000.0001) //            Min. Y spins =     1000000000
(PID.TID 0000.0001) //          Total. Y spins =              0
(PID.TID 0000.0001) //            Avg. Y spins =       0.00E+00
(PID.TID 0000.0001) // o Tile number: 000134
(PID.TID 0000.0001) //         No. X exchanges =              0
(PID.TID 0000.0001) //            Max. X spins =              0
(PID.TID 0000.0001) //            Min. X spins =     1000000000
(PID.TID 0000.0001) //          Total. X spins =              0
(PID.TID 0000.0001) //            Avg. X spins =       0.00E+00
(PID.TID 0000.0001) //         No. Y exchanges =              0
(PID.TID 0000.0001) //            Max. Y spins =              0
(PID.TID 0000.0001) //            Min. Y spins =     1000000000
(PID.TID 0000.0001) //          Total. Y spins =              0
(PID.TID 0000.0001) //            Avg. Y spins =       0.00E+00
(PID.TID 0000.0001) // o Tile number: 000135
(PID.TID 0000.0001) //         No. X exchanges =              0
(PID.TID 0000.0001) //            Max. X spins =              0
(PID.TID 0000.0001) //            Min. X spins =     1000000000
(PID.TID 0000.0001) //          Total. X spins =              0
(PID.TID 0000.0001) //            Avg. X spins =       0.00E+00
(PID.TID 0000.0001) //         No. Y exchanges =              0
(PID.TID 0000.0001) //            Max. Y spins =              0
(PID.TID 0000.0001) //            Min. Y spins =     1000000000
(PID.TID 0000.0001) //          Total. Y spins =              0
(PID.TID 0000.0001) //            Avg. Y spins =       0.00E+00
(PID.TID 0000.0001) // o Tile number: 000136
(PID.TID 0000.0001) //         No. X exchanges =              0
(PID.TID 0000.0001) //            Max. X spins =              0
(PID.TID 0000.0001) //            Min. X spins =     1000000000
(PID.TID 0000.0001) //          Total. X spins =              0
(PID.TID 0000.0001) //            Avg. X spins =       0.00E+00
(PID.TID 0000.0001) //         No. Y exchanges =              0
(PID.TID 0000.0001) //            Max. Y spins =              0
(PID.TID 0000.0001) //            Min. Y spins =     1000000000
(PID.TID 0000.0001) //          Total. Y spins =              0
(PID.TID 0000.0001) //            Avg. Y spins =       0.00E+00
(PID.TID 0000.0001) // o Tile number: 000137
(PID.TID 0000.0001) //         No. X exchanges =              0
(PID.TID 0000.0001) //            Max. X spins =              0
(PID.TID 0000.0001) //            Min. X spins =     1000000000
(PID.TID 0000.0001) //          Total. X spins =              0
(PID.TID 0000.0001) //            Avg. X spins =       0.00E+00
(PID.TID 0000.0001) //         No. Y exchanges =              0
(PID.TID 0000.0001) //            Max. Y spins =              0
(PID.TID 0000.0001) //            Min. Y spins =     1000000000
(PID.TID 0000.0001) //          Total. Y spins =              0
(PID.TID 0000.0001) //            Avg. Y spins =       0.00E+00
(PID.TID 0000.0001) // o Tile number: 000138
(PID.TID 0000.0001) //         No. X exchanges =              0
(PID.TID 0000.0001) //            Max. X spins =              0
(PID.TID 0000.0001) //            Min. X spins =     1000000000
(PID.TID 0000.0001) //          Total. X spins =              0
(PID.TID 0000.0001) //            Avg. X spins =       0.00E+00
(PID.TID 0000.0001) //         No. Y exchanges =              0
(PID.TID 0000.0001) //            Max. Y spins =              0
(PID.TID 0000.0001) //            Min. Y spins =     1000000000
(PID.TID 0000.0001) //          Total. Y spins =              0
(PID.TID 0000.0001) //            Avg. Y spins =       0.00E+00
(PID.TID 0000.0001) // o Tile number: 000139
(PID.TID 0000.0001) //         No. X exchanges =              0
(PID.TID 0000.0001) //            Max. X spins =              0
(PID.TID 0000.0001) //            Min. X spins =     1000000000
(PID.TID 0000.0001) //          Total. X spins =              0
(PID.TID 0000.0001) //            Avg. X spins =       0.00E+00
(PID.TID 0000.0001) //         No. Y exchanges =              0
(PID.TID 0000.0001) //            Max. Y spins =              0
(PID.TID 0000.0001) //            Min. Y spins =     1000000000
(PID.TID 0000.0001) //          Total. Y spins =              0
(PID.TID 0000.0001) //            Avg. Y spins =       0.00E+00
(PID.TID 0000.0001) // o Tile number: 000140
(PID.TID 0000.0001) //         No. X exchanges =              0
(PID.TID 0000.0001) //            Max. X spins =              0
(PID.TID 0000.0001) //            Min. X spins =     1000000000
(PID.TID 0000.0001) //          Total. X spins =              0
(PID.TID 0000.0001) //            Avg. X spins =       0.00E+00
(PID.TID 0000.0001) //         No. Y exchanges =              0
(PID.TID 0000.0001) //            Max. Y spins =              0
(PID.TID 0000.0001) //            Min. Y spins =     1000000000
(PID.TID 0000.0001) //          Total. Y spins =              0
(PID.TID 0000.0001) //            Avg. Y spins =       0.00E+00
(PID.TID 0000.0001) // o Tile number: 000141
(PID.TID 0000.0001) //         No. X exchanges =              0
(PID.TID 0000.0001) //            Max. X spins =              0
(PID.TID 0000.0001) //            Min. X spins =     1000000000
(PID.TID 0000.0001) //          Total. X spins =              0
(PID.TID 0000.0001) //            Avg. X spins =       0.00E+00
(PID.TID 0000.0001) //         No. Y exchanges =              0
(PID.TID 0000.0001) //            Max. Y spins =              0
(PID.TID 0000.0001) //            Min. Y spins =     1000000000
(PID.TID 0000.0001) //          Total. Y spins =              0
(PID.TID 0000.0001) //            Avg. Y spins =       0.00E+00
(PID.TID 0000.0001) // o Tile number: 000142
(PID.TID 0000.0001) //         No. X exchanges =              0
(PID.TID 0000.0001) //            Max. X spins =              0
(PID.TID 0000.0001) //            Min. X spins =     1000000000
(PID.TID 0000.0001) //          Total. X spins =              0
(PID.TID 0000.0001) //            Avg. X spins =       0.00E+00
(PID.TID 0000.0001) //         No. Y exchanges =              0
(PID.TID 0000.0001) //            Max. Y spins =              0
(PID.TID 0000.0001) //            Min. Y spins =     1000000000
(PID.TID 0000.0001) //          Total. Y spins =              0
(PID.TID 0000.0001) //            Avg. Y spins =       0.00E+00
(PID.TID 0000.0001) // o Tile number: 000143
(PID.TID 0000.0001) //         No. X exchanges =              0
(PID.TID 0000.0001) //            Max. X spins =              0
(PID.TID 0000.0001) //            Min. X spins =     1000000000
(PID.TID 0000.0001) //          Total. X spins =              0
(PID.TID 0000.0001) //            Avg. X spins =       0.00E+00
(PID.TID 0000.0001) //         No. Y exchanges =              0
(PID.TID 0000.0001) //            Max. Y spins =              0
(PID.TID 0000.0001) //            Min. Y spins =     1000000000
(PID.TID 0000.0001) //          Total. Y spins =              0
(PID.TID 0000.0001) //            Avg. Y spins =       0.00E+00
(PID.TID 0000.0001) // o Tile number: 000144
(PID.TID 0000.0001) //         No. X exchanges =              0
(PID.TID 0000.0001) //            Max. X spins =              0
(PID.TID 0000.0001) //            Min. X spins =     1000000000
(PID.TID 0000.0001) //          Total. X spins =              0
(PID.TID 0000.0001) //            Avg. X spins =       0.00E+00
(PID.TID 0000.0001) //         No. Y exchanges =              0
(PID.TID 0000.0001) //            Max. Y spins =              0
(PID.TID 0000.0001) //            Min. Y spins =     1000000000
(PID.TID 0000.0001) //          Total. Y spins =              0
(PID.TID 0000.0001) //            Avg. Y spins =       0.00E+00
(PID.TID 0000.0001) // o Tile number: 000145
(PID.TID 0000.0001) //         No. X exchanges =              0
(PID.TID 0000.0001) //            Max. X spins =              0
(PID.TID 0000.0001) //            Min. X spins =     1000000000
(PID.TID 0000.0001) //          Total. X spins =              0
(PID.TID 0000.0001) //            Avg. X spins =       0.00E+00
(PID.TID 0000.0001) //         No. Y exchanges =              0
(PID.TID 0000.0001) //            Max. Y spins =              0
(PID.TID 0000.0001) //            Min. Y spins =     1000000000
(PID.TID 0000.0001) //          Total. Y spins =              0
(PID.TID 0000.0001) //            Avg. Y spins =       0.00E+00
(PID.TID 0000.0001) // o Tile number: 000146
(PID.TID 0000.0001) //         No. X exchanges =              0
(PID.TID 0000.0001) //            Max. X spins =              0
(PID.TID 0000.0001) //            Min. X spins =     1000000000
(PID.TID 0000.0001) //          Total. X spins =              0
(PID.TID 0000.0001) //            Avg. X spins =       0.00E+00
(PID.TID 0000.0001) //         No. Y exchanges =              0
(PID.TID 0000.0001) //            Max. Y spins =              0
(PID.TID 0000.0001) //            Min. Y spins =     1000000000
(PID.TID 0000.0001) //          Total. Y spins =              0
(PID.TID 0000.0001) //            Avg. Y spins =       0.00E+00
(PID.TID 0000.0001) // o Tile number: 000147
(PID.TID 0000.0001) //         No. X exchanges =              0
(PID.TID 0000.0001) //            Max. X spins =              0
(PID.TID 0000.0001) //            Min. X spins =     1000000000
(PID.TID 0000.0001) //          Total. X spins =              0
(PID.TID 0000.0001) //            Avg. X spins =       0.00E+00
(PID.TID 0000.0001) //         No. Y exchanges =              0
(PID.TID 0000.0001) //            Max. Y spins =              0
(PID.TID 0000.0001) //            Min. Y spins =     1000000000
(PID.TID 0000.0001) //          Total. Y spins =              0
(PID.TID 0000.0001) //            Avg. Y spins =       0.00E+00
(PID.TID 0000.0001) // o Tile number: 000148
(PID.TID 0000.0001) //         No. X exchanges =              0
(PID.TID 0000.0001) //            Max. X spins =              0
(PID.TID 0000.0001) //            Min. X spins =     1000000000
(PID.TID 0000.0001) //          Total. X spins =              0
(PID.TID 0000.0001) //            Avg. X spins =       0.00E+00
(PID.TID 0000.0001) //         No. Y exchanges =              0
(PID.TID 0000.0001) //            Max. Y spins =              0
(PID.TID 0000.0001) //            Min. Y spins =     1000000000
(PID.TID 0000.0001) //          Total. Y spins =              0
(PID.TID 0000.0001) //            Avg. Y spins =       0.00E+00
(PID.TID 0000.0001) // o Tile number: 000149
(PID.TID 0000.0001) //         No. X exchanges =              0
(PID.TID 0000.0001) //            Max. X spins =              0
(PID.TID 0000.0001) //            Min. X spins =     1000000000
(PID.TID 0000.0001) //          Total. X spins =              0
(PID.TID 0000.0001) //            Avg. X spins =       0.00E+00
(PID.TID 0000.0001) //         No. Y exchanges =              0
(PID.TID 0000.0001) //            Max. Y spins =              0
(PID.TID 0000.0001) //            Min. Y spins =     1000000000
(PID.TID 0000.0001) //          Total. Y spins =              0
(PID.TID 0000.0001) //            Avg. Y spins =       0.00E+00
(PID.TID 0000.0001) // o Tile number: 000150
(PID.TID 0000.0001) //         No. X exchanges =              0
(PID.TID 0000.0001) //            Max. X spins =              0
(PID.TID 0000.0001) //            Min. X spins =     1000000000
(PID.TID 0000.0001) //          Total. X spins =              0
(PID.TID 0000.0001) //            Avg. X spins =       0.00E+00
(PID.TID 0000.0001) //         No. Y exchanges =              0
(PID.TID 0000.0001) //            Max. Y spins =              0
(PID.TID 0000.0001) //            Min. Y spins =     1000000000
(PID.TID 0000.0001) //          Total. Y spins =              0
(PID.TID 0000.0001) //            Avg. Y spins =       0.00E+00
(PID.TID 0000.0001) // o Tile number: 000151
(PID.TID 0000.0001) //         No. X exchanges =              0
(PID.TID 0000.0001) //            Max. X spins =              0
(PID.TID 0000.0001) //            Min. X spins =     1000000000
(PID.TID 0000.0001) //          Total. X spins =              0
(PID.TID 0000.0001) //            Avg. X spins =       0.00E+00
(PID.TID 0000.0001) //         No. Y exchanges =              0
(PID.TID 0000.0001) //            Max. Y spins =              0
(PID.TID 0000.0001) //            Min. Y spins =     1000000000
(PID.TID 0000.0001) //          Total. Y spins =              0
(PID.TID 0000.0001) //            Avg. Y spins =       0.00E+00
(PID.TID 0000.0001) // o Tile number: 000152
(PID.TID 0000.0001) //         No. X exchanges =              0
(PID.TID 0000.0001) //            Max. X spins =              0
(PID.TID 0000.0001) //            Min. X spins =     1000000000
(PID.TID 0000.0001) //          Total. X spins =              0
(PID.TID 0000.0001) //            Avg. X spins =       0.00E+00
(PID.TID 0000.0001) //         No. Y exchanges =              0
(PID.TID 0000.0001) //            Max. Y spins =              0
(PID.TID 0000.0001) //            Min. Y spins =     1000000000
(PID.TID 0000.0001) //          Total. Y spins =              0
(PID.TID 0000.0001) //            Avg. Y spins =       0.00E+00
(PID.TID 0000.0001) // o Tile number: 000153
(PID.TID 0000.0001) //         No. X exchanges =              0
(PID.TID 0000.0001) //            Max. X spins =              0
(PID.TID 0000.0001) //            Min. X spins =     1000000000
(PID.TID 0000.0001) //          Total. X spins =              0
(PID.TID 0000.0001) //            Avg. X spins =       0.00E+00
(PID.TID 0000.0001) //         No. Y exchanges =              0
(PID.TID 0000.0001) //            Max. Y spins =              0
(PID.TID 0000.0001) //            Min. Y spins =     1000000000
(PID.TID 0000.0001) //          Total. Y spins =              0
(PID.TID 0000.0001) //            Avg. Y spins =       0.00E+00
(PID.TID 0000.0001) // o Tile number: 000154
(PID.TID 0000.0001) //         No. X exchanges =              0
(PID.TID 0000.0001) //            Max. X spins =              0
(PID.TID 0000.0001) //            Min. X spins =     1000000000
(PID.TID 0000.0001) //          Total. X spins =              0
(PID.TID 0000.0001) //            Avg. X spins =       0.00E+00
(PID.TID 0000.0001) //         No. Y exchanges =              0
(PID.TID 0000.0001) //            Max. Y spins =              0
(PID.TID 0000.0001) //            Min. Y spins =     1000000000
(PID.TID 0000.0001) //          Total. Y spins =              0
(PID.TID 0000.0001) //            Avg. Y spins =       0.00E+00
(PID.TID 0000.0001) // o Tile number: 000155
(PID.TID 0000.0001) //         No. X exchanges =              0
(PID.TID 0000.0001) //            Max. X spins =              0
(PID.TID 0000.0001) //            Min. X spins =     1000000000
(PID.TID 0000.0001) //          Total. X spins =              0
(PID.TID 0000.0001) //            Avg. X spins =       0.00E+00
(PID.TID 0000.0001) //         No. Y exchanges =              0
(PID.TID 0000.0001) //            Max. Y spins =              0
(PID.TID 0000.0001) //            Min. Y spins =     1000000000
(PID.TID 0000.0001) //          Total. Y spins =              0
(PID.TID 0000.0001) //            Avg. Y spins =       0.00E+00
(PID.TID 0000.0001) // o Tile number: 000156
(PID.TID 0000.0001) //         No. X exchanges =              0
(PID.TID 0000.0001) //            Max. X spins =              0
(PID.TID 0000.0001) //            Min. X spins =     1000000000
(PID.TID 0000.0001) //          Total. X spins =              0
(PID.TID 0000.0001) //            Avg. X spins =       0.00E+00
(PID.TID 0000.0001) //         No. Y exchanges =              0
(PID.TID 0000.0001) //            Max. Y spins =              0
(PID.TID 0000.0001) //            Min. Y spins =     1000000000
(PID.TID 0000.0001) //          Total. Y spins =              0
(PID.TID 0000.0001) //            Avg. Y spins =       0.00E+00
(PID.TID 0000.0001) // o Tile number: 000157
(PID.TID 0000.0001) //         No. X exchanges =              0
(PID.TID 0000.0001) //            Max. X spins =              0
(PID.TID 0000.0001) //            Min. X spins =     1000000000
(PID.TID 0000.0001) //          Total. X spins =              0
(PID.TID 0000.0001) //            Avg. X spins =       0.00E+00
(PID.TID 0000.0001) //         No. Y exchanges =              0
(PID.TID 0000.0001) //            Max. Y spins =              0
(PID.TID 0000.0001) //            Min. Y spins =     1000000000
(PID.TID 0000.0001) //          Total. Y spins =              0
(PID.TID 0000.0001) //            Avg. Y spins =       0.00E+00
(PID.TID 0000.0001) // o Tile number: 000158
(PID.TID 0000.0001) //         No. X exchanges =              0
(PID.TID 0000.0001) //            Max. X spins =              0
(PID.TID 0000.0001) //            Min. X spins =     1000000000
(PID.TID 0000.0001) //          Total. X spins =              0
(PID.TID 0000.0001) //            Avg. X spins =       0.00E+00
(PID.TID 0000.0001) //         No. Y exchanges =              0
(PID.TID 0000.0001) //            Max. Y spins =              0
(PID.TID 0000.0001) //            Min. Y spins =     1000000000
(PID.TID 0000.0001) //          Total. Y spins =              0
(PID.TID 0000.0001) //            Avg. Y spins =       0.00E+00
(PID.TID 0000.0001) // o Tile number: 000159
(PID.TID 0000.0001) //         No. X exchanges =              0
(PID.TID 0000.0001) //            Max. X spins =              0
(PID.TID 0000.0001) //            Min. X spins =     1000000000
(PID.TID 0000.0001) //          Total. X spins =              0
(PID.TID 0000.0001) //            Avg. X spins =       0.00E+00
(PID.TID 0000.0001) //         No. Y exchanges =              0
(PID.TID 0000.0001) //            Max. Y spins =              0
(PID.TID 0000.0001) //            Min. Y spins =     1000000000
(PID.TID 0000.0001) //          Total. Y spins =              0
(PID.TID 0000.0001) //            Avg. Y spins =       0.00E+00
(PID.TID 0000.0001) // o Tile number: 000160
(PID.TID 0000.0001) //         No. X exchanges =              0
(PID.TID 0000.0001) //            Max. X spins =              0
(PID.TID 0000.0001) //            Min. X spins =     1000000000
(PID.TID 0000.0001) //          Total. X spins =              0
(PID.TID 0000.0001) //            Avg. X spins =       0.00E+00
(PID.TID 0000.0001) //         No. Y exchanges =              0
(PID.TID 0000.0001) //            Max. Y spins =              0
(PID.TID 0000.0001) //            Min. Y spins =     1000000000
(PID.TID 0000.0001) //          Total. Y spins =              0
(PID.TID 0000.0001) //            Avg. Y spins =       0.00E+00
(PID.TID 0000.0001) // o Tile number: 000161
(PID.TID 0000.0001) //         No. X exchanges =              0
(PID.TID 0000.0001) //            Max. X spins =              0
(PID.TID 0000.0001) //            Min. X spins =     1000000000
(PID.TID 0000.0001) //          Total. X spins =              0
(PID.TID 0000.0001) //            Avg. X spins =       0.00E+00
(PID.TID 0000.0001) //         No. Y exchanges =              0
(PID.TID 0000.0001) //            Max. Y spins =              0
(PID.TID 0000.0001) //            Min. Y spins =     1000000000
(PID.TID 0000.0001) //          Total. Y spins =              0
(PID.TID 0000.0001) //            Avg. Y spins =       0.00E+00
(PID.TID 0000.0001) // o Tile number: 000162
(PID.TID 0000.0001) //         No. X exchanges =              0
(PID.TID 0000.0001) //            Max. X spins =              0
(PID.TID 0000.0001) //            Min. X spins =     1000000000
(PID.TID 0000.0001) //          Total. X spins =              0
(PID.TID 0000.0001) //            Avg. X spins =       0.00E+00
(PID.TID 0000.0001) //         No. Y exchanges =              0
(PID.TID 0000.0001) //            Max. Y spins =              0
(PID.TID 0000.0001) //            Min. Y spins =     1000000000
(PID.TID 0000.0001) //          Total. Y spins =              0
(PID.TID 0000.0001) //            Avg. Y spins =       0.00E+00
(PID.TID 0000.0001) // o Tile number: 000163
(PID.TID 0000.0001) //         No. X exchanges =              0
(PID.TID 0000.0001) //            Max. X spins =              0
(PID.TID 0000.0001) //            Min. X spins =     1000000000
(PID.TID 0000.0001) //          Total. X spins =              0
(PID.TID 0000.0001) //            Avg. X spins =       0.00E+00
(PID.TID 0000.0001) //         No. Y exchanges =              0
(PID.TID 0000.0001) //            Max. Y spins =              0
(PID.TID 0000.0001) //            Min. Y spins =     1000000000
(PID.TID 0000.0001) //          Total. Y spins =              0
(PID.TID 0000.0001) //            Avg. Y spins =       0.00E+00
(PID.TID 0000.0001) // o Tile number: 000164
(PID.TID 0000.0001) //         No. X exchanges =              0
(PID.TID 0000.0001) //            Max. X spins =              0
(PID.TID 0000.0001) //            Min. X spins =     1000000000
(PID.TID 0000.0001) //          Total. X spins =              0
(PID.TID 0000.0001) //            Avg. X spins =       0.00E+00
(PID.TID 0000.0001) //         No. Y exchanges =              0
(PID.TID 0000.0001) //            Max. Y spins =              0
(PID.TID 0000.0001) //            Min. Y spins =     1000000000
(PID.TID 0000.0001) //          Total. Y spins =              0
(PID.TID 0000.0001) //            Avg. Y spins =       0.00E+00
(PID.TID 0000.0001) // o Tile number: 000165
(PID.TID 0000.0001) //         No. X exchanges =              0
(PID.TID 0000.0001) //            Max. X spins =              0
(PID.TID 0000.0001) //            Min. X spins =     1000000000
(PID.TID 0000.0001) //          Total. X spins =              0
(PID.TID 0000.0001) //            Avg. X spins =       0.00E+00
(PID.TID 0000.0001) //         No. Y exchanges =              0
(PID.TID 0000.0001) //            Max. Y spins =              0
(PID.TID 0000.0001) //            Min. Y spins =     1000000000
(PID.TID 0000.0001) //          Total. Y spins =              0
(PID.TID 0000.0001) //            Avg. Y spins =       0.00E+00
(PID.TID 0000.0001) // o Tile number: 000166
(PID.TID 0000.0001) //         No. X exchanges =              0
(PID.TID 0000.0001) //            Max. X spins =              0
(PID.TID 0000.0001) //            Min. X spins =     1000000000
(PID.TID 0000.0001) //          Total. X spins =              0
(PID.TID 0000.0001) //            Avg. X spins =       0.00E+00
(PID.TID 0000.0001) //         No. Y exchanges =              0
(PID.TID 0000.0001) //            Max. Y spins =              0
(PID.TID 0000.0001) //            Min. Y spins =     1000000000
(PID.TID 0000.0001) //          Total. Y spins =              0
(PID.TID 0000.0001) //            Avg. Y spins =       0.00E+00
(PID.TID 0000.0001) // o Tile number: 000167
(PID.TID 0000.0001) //         No. X exchanges =              0
(PID.TID 0000.0001) //            Max. X spins =              0
(PID.TID 0000.0001) //            Min. X spins =     1000000000
(PID.TID 0000.0001) //          Total. X spins =              0
(PID.TID 0000.0001) //            Avg. X spins =       0.00E+00
(PID.TID 0000.0001) //         No. Y exchanges =              0
(PID.TID 0000.0001) //            Max. Y spins =              0
(PID.TID 0000.0001) //            Min. Y spins =     1000000000
(PID.TID 0000.0001) //          Total. Y spins =              0
(PID.TID 0000.0001) //            Avg. Y spins =       0.00E+00
(PID.TID 0000.0001) // o Tile number: 000168
(PID.TID 0000.0001) //         No. X exchanges =              0
(PID.TID 0000.0001) //            Max. X spins =              0
(PID.TID 0000.0001) //            Min. X spins =     1000000000
(PID.TID 0000.0001) //          Total. X spins =              0
(PID.TID 0000.0001) //            Avg. X spins =       0.00E+00
(PID.TID 0000.0001) //         No. Y exchanges =              0
(PID.TID 0000.0001) //            Max. Y spins =              0
(PID.TID 0000.0001) //            Min. Y spins =     1000000000
(PID.TID 0000.0001) //          Total. Y spins =              0
(PID.TID 0000.0001) //            Avg. Y spins =       0.00E+00
(PID.TID 0000.0001) // o Tile number: 000169
(PID.TID 0000.0001) //         No. X exchanges =              0
(PID.TID 0000.0001) //            Max. X spins =              0
(PID.TID 0000.0001) //            Min. X spins =     1000000000
(PID.TID 0000.0001) //          Total. X spins =              0
(PID.TID 0000.0001) //            Avg. X spins =       0.00E+00
(PID.TID 0000.0001) //         No. Y exchanges =              0
(PID.TID 0000.0001) //            Max. Y spins =              0
(PID.TID 0000.0001) //            Min. Y spins =     1000000000
(PID.TID 0000.0001) //          Total. Y spins =              0
(PID.TID 0000.0001) //            Avg. Y spins =       0.00E+00
(PID.TID 0000.0001) // o Tile number: 000170
(PID.TID 0000.0001) //         No. X exchanges =              0
(PID.TID 0000.0001) //            Max. X spins =              0
(PID.TID 0000.0001) //            Min. X spins =     1000000000
(PID.TID 0000.0001) //          Total. X spins =              0
(PID.TID 0000.0001) //            Avg. X spins =       0.00E+00
(PID.TID 0000.0001) //         No. Y exchanges =              0
(PID.TID 0000.0001) //            Max. Y spins =              0
(PID.TID 0000.0001) //            Min. Y spins =     1000000000
(PID.TID 0000.0001) //          Total. Y spins =              0
(PID.TID 0000.0001) //            Avg. Y spins =       0.00E+00
(PID.TID 0000.0001) // o Tile number: 000171
(PID.TID 0000.0001) //         No. X exchanges =              0
(PID.TID 0000.0001) //            Max. X spins =              0
(PID.TID 0000.0001) //            Min. X spins =     1000000000
(PID.TID 0000.0001) //          Total. X spins =              0
(PID.TID 0000.0001) //            Avg. X spins =       0.00E+00
(PID.TID 0000.0001) //         No. Y exchanges =              0
(PID.TID 0000.0001) //            Max. Y spins =              0
(PID.TID 0000.0001) //            Min. Y spins =     1000000000
(PID.TID 0000.0001) //          Total. Y spins =              0
(PID.TID 0000.0001) //            Avg. Y spins =       0.00E+00
(PID.TID 0000.0001) // o Tile number: 000172
(PID.TID 0000.0001) //         No. X exchanges =              0
(PID.TID 0000.0001) //            Max. X spins =              0
(PID.TID 0000.0001) //            Min. X spins =     1000000000
(PID.TID 0000.0001) //          Total. X spins =              0
(PID.TID 0000.0001) //            Avg. X spins =       0.00E+00
(PID.TID 0000.0001) //         No. Y exchanges =              0
(PID.TID 0000.0001) //            Max. Y spins =              0
(PID.TID 0000.0001) //            Min. Y spins =     1000000000
(PID.TID 0000.0001) //          Total. Y spins =              0
(PID.TID 0000.0001) //            Avg. Y spins =       0.00E+00
(PID.TID 0000.0001) // o Tile number: 000173
(PID.TID 0000.0001) //         No. X exchanges =              0
(PID.TID 0000.0001) //            Max. X spins =              0
(PID.TID 0000.0001) //            Min. X spins =     1000000000
(PID.TID 0000.0001) //          Total. X spins =              0
(PID.TID 0000.0001) //            Avg. X spins =       0.00E+00
(PID.TID 0000.0001) //         No. Y exchanges =              0
(PID.TID 0000.0001) //            Max. Y spins =              0
(PID.TID 0000.0001) //            Min. Y spins =     1000000000
(PID.TID 0000.0001) //          Total. Y spins =              0
(PID.TID 0000.0001) //            Avg. Y spins =       0.00E+00
(PID.TID 0000.0001) // o Tile number: 000174
(PID.TID 0000.0001) //         No. X exchanges =              0
(PID.TID 0000.0001) //            Max. X spins =              0
(PID.TID 0000.0001) //            Min. X spins =     1000000000
(PID.TID 0000.0001) //          Total. X spins =              0
(PID.TID 0000.0001) //            Avg. X spins =       0.00E+00
(PID.TID 0000.0001) //         No. Y exchanges =              0
(PID.TID 0000.0001) //            Max. Y spins =              0
(PID.TID 0000.0001) //            Min. Y spins =     1000000000
(PID.TID 0000.0001) //          Total. Y spins =              0
(PID.TID 0000.0001) //            Avg. Y spins =       0.00E+00
(PID.TID 0000.0001) // o Tile number: 000175
(PID.TID 0000.0001) //         No. X exchanges =              0
(PID.TID 0000.0001) //            Max. X spins =              0
(PID.TID 0000.0001) //            Min. X spins =     1000000000
(PID.TID 0000.0001) //          Total. X spins =              0
(PID.TID 0000.0001) //            Avg. X spins =       0.00E+00
(PID.TID 0000.0001) //         No. Y exchanges =              0
(PID.TID 0000.0001) //            Max. Y spins =              0
(PID.TID 0000.0001) //            Min. Y spins =     1000000000
(PID.TID 0000.0001) //          Total. Y spins =              0
(PID.TID 0000.0001) //            Avg. Y spins =       0.00E+00
(PID.TID 0000.0001) // o Tile number: 000176
(PID.TID 0000.0001) //         No. X exchanges =              0
(PID.TID 0000.0001) //            Max. X spins =              0
(PID.TID 0000.0001) //            Min. X spins =     1000000000
(PID.TID 0000.0001) //          Total. X spins =              0
(PID.TID 0000.0001) //            Avg. X spins =       0.00E+00
(PID.TID 0000.0001) //         No. Y exchanges =              0
(PID.TID 0000.0001) //            Max. Y spins =              0
(PID.TID 0000.0001) //            Min. Y spins =     1000000000
(PID.TID 0000.0001) //          Total. Y spins =              0
(PID.TID 0000.0001) //            Avg. Y spins =       0.00E+00
(PID.TID 0000.0001) // o Tile number: 000177
(PID.TID 0000.0001) //         No. X exchanges =              0
(PID.TID 0000.0001) //            Max. X spins =              0
(PID.TID 0000.0001) //            Min. X spins =     1000000000
(PID.TID 0000.0001) //          Total. X spins =              0
(PID.TID 0000.0001) //            Avg. X spins =       0.00E+00
(PID.TID 0000.0001) //         No. Y exchanges =              0
(PID.TID 0000.0001) //            Max. Y spins =              0
(PID.TID 0000.0001) //            Min. Y spins =     1000000000
(PID.TID 0000.0001) //          Total. Y spins =              0
(PID.TID 0000.0001) //            Avg. Y spins =       0.00E+00
(PID.TID 0000.0001) // o Tile number: 000178
(PID.TID 0000.0001) //         No. X exchanges =              0
(PID.TID 0000.0001) //            Max. X spins =              0
(PID.TID 0000.0001) //            Min. X spins =     1000000000
(PID.TID 0000.0001) //          Total. X spins =              0
(PID.TID 0000.0001) //            Avg. X spins =       0.00E+00
(PID.TID 0000.0001) //         No. Y exchanges =              0
(PID.TID 0000.0001) //            Max. Y spins =              0
(PID.TID 0000.0001) //            Min. Y spins =     1000000000
(PID.TID 0000.0001) //          Total. Y spins =              0
(PID.TID 0000.0001) //            Avg. Y spins =       0.00E+00
(PID.TID 0000.0001) // o Tile number: 000179
(PID.TID 0000.0001) //         No. X exchanges =              0
(PID.TID 0000.0001) //            Max. X spins =              0
(PID.TID 0000.0001) //            Min. X spins =     1000000000
(PID.TID 0000.0001) //          Total. X spins =              0
(PID.TID 0000.0001) //            Avg. X spins =       0.00E+00
(PID.TID 0000.0001) //         No. Y exchanges =              0
(PID.TID 0000.0001) //            Max. Y spins =              0
(PID.TID 0000.0001) //            Min. Y spins =     1000000000
(PID.TID 0000.0001) //          Total. Y spins =              0
(PID.TID 0000.0001) //            Avg. Y spins =       0.00E+00
(PID.TID 0000.0001) // o Tile number: 000180
(PID.TID 0000.0001) //         No. X exchanges =              0
(PID.TID 0000.0001) //            Max. X spins =              0
(PID.TID 0000.0001) //            Min. X spins =     1000000000
(PID.TID 0000.0001) //          Total. X spins =              0
(PID.TID 0000.0001) //            Avg. X spins =       0.00E+00
(PID.TID 0000.0001) //         No. Y exchanges =              0
(PID.TID 0000.0001) //            Max. Y spins =              0
(PID.TID 0000.0001) //            Min. Y spins =     1000000000
(PID.TID 0000.0001) //          Total. Y spins =              0
(PID.TID 0000.0001) //            Avg. Y spins =       0.00E+00
(PID.TID 0000.0001) // o Tile number: 000181
(PID.TID 0000.0001) //         No. X exchanges =              0
(PID.TID 0000.0001) //            Max. X spins =              0
(PID.TID 0000.0001) //            Min. X spins =     1000000000
(PID.TID 0000.0001) //          Total. X spins =              0
(PID.TID 0000.0001) //            Avg. X spins =       0.00E+00
(PID.TID 0000.0001) //         No. Y exchanges =              0
(PID.TID 0000.0001) //            Max. Y spins =              0
(PID.TID 0000.0001) //            Min. Y spins =     1000000000
(PID.TID 0000.0001) //          Total. Y spins =              0
(PID.TID 0000.0001) //            Avg. Y spins =       0.00E+00
(PID.TID 0000.0001) // o Tile number: 000182
(PID.TID 0000.0001) //         No. X exchanges =              0
(PID.TID 0000.0001) //            Max. X spins =              0
(PID.TID 0000.0001) //            Min. X spins =     1000000000
(PID.TID 0000.0001) //          Total. X spins =              0
(PID.TID 0000.0001) //            Avg. X spins =       0.00E+00
(PID.TID 0000.0001) //         No. Y exchanges =              0
(PID.TID 0000.0001) //            Max. Y spins =              0
(PID.TID 0000.0001) //            Min. Y spins =     1000000000
(PID.TID 0000.0001) //          Total. Y spins =              0
(PID.TID 0000.0001) //            Avg. Y spins =       0.00E+00
(PID.TID 0000.0001) // o Tile number: 000183
(PID.TID 0000.0001) //         No. X exchanges =              0
(PID.TID 0000.0001) //            Max. X spins =              0
(PID.TID 0000.0001) //            Min. X spins =     1000000000
(PID.TID 0000.0001) //          Total. X spins =              0
(PID.TID 0000.0001) //            Avg. X spins =       0.00E+00
(PID.TID 0000.0001) //         No. Y exchanges =              0
(PID.TID 0000.0001) //            Max. Y spins =              0
(PID.TID 0000.0001) //            Min. Y spins =     1000000000
(PID.TID 0000.0001) //          Total. Y spins =              0
(PID.TID 0000.0001) //            Avg. Y spins =       0.00E+00
(PID.TID 0000.0001) // o Tile number: 000184
(PID.TID 0000.0001) //         No. X exchanges =              0
(PID.TID 0000.0001) //            Max. X spins =              0
(PID.TID 0000.0001) //            Min. X spins =     1000000000
(PID.TID 0000.0001) //          Total. X spins =              0
(PID.TID 0000.0001) //            Avg. X spins =       0.00E+00
(PID.TID 0000.0001) //         No. Y exchanges =              0
(PID.TID 0000.0001) //            Max. Y spins =              0
(PID.TID 0000.0001) //            Min. Y spins =     1000000000
(PID.TID 0000.0001) //          Total. Y spins =              0
(PID.TID 0000.0001) //            Avg. Y spins =       0.00E+00
(PID.TID 0000.0001) // o Tile number: 000185
(PID.TID 0000.0001) //         No. X exchanges =              0
(PID.TID 0000.0001) //            Max. X spins =              0
(PID.TID 0000.0001) //            Min. X spins =     1000000000
(PID.TID 0000.0001) //          Total. X spins =              0
(PID.TID 0000.0001) //            Avg. X spins =       0.00E+00
(PID.TID 0000.0001) //         No. Y exchanges =              0
(PID.TID 0000.0001) //            Max. Y spins =              0
(PID.TID 0000.0001) //            Min. Y spins =     1000000000
(PID.TID 0000.0001) //          Total. Y spins =              0
(PID.TID 0000.0001) //            Avg. Y spins =       0.00E+00
(PID.TID 0000.0001) // o Tile number: 000186
(PID.TID 0000.0001) //         No. X exchanges =              0
(PID.TID 0000.0001) //            Max. X spins =              0
(PID.TID 0000.0001) //            Min. X spins =     1000000000
(PID.TID 0000.0001) //          Total. X spins =              0
(PID.TID 0000.0001) //            Avg. X spins =       0.00E+00
(PID.TID 0000.0001) //         No. Y exchanges =              0
(PID.TID 0000.0001) //            Max. Y spins =              0
(PID.TID 0000.0001) //            Min. Y spins =     1000000000
(PID.TID 0000.0001) //          Total. Y spins =              0
(PID.TID 0000.0001) //            Avg. Y spins =       0.00E+00
(PID.TID 0000.0001) // o Tile number: 000187
(PID.TID 0000.0001) //         No. X exchanges =              0
(PID.TID 0000.0001) //            Max. X spins =              0
(PID.TID 0000.0001) //            Min. X spins =     1000000000
(PID.TID 0000.0001) //          Total. X spins =              0
(PID.TID 0000.0001) //            Avg. X spins =       0.00E+00
(PID.TID 0000.0001) //         No. Y exchanges =              0
(PID.TID 0000.0001) //            Max. Y spins =              0
(PID.TID 0000.0001) //            Min. Y spins =     1000000000
(PID.TID 0000.0001) //          Total. Y spins =              0
(PID.TID 0000.0001) //            Avg. Y spins =       0.00E+00
(PID.TID 0000.0001) // o Tile number: 000188
(PID.TID 0000.0001) //         No. X exchanges =              0
(PID.TID 0000.0001) //            Max. X spins =              0
(PID.TID 0000.0001) //            Min. X spins =     1000000000
(PID.TID 0000.0001) //          Total. X spins =              0
(PID.TID 0000.0001) //            Avg. X spins =       0.00E+00
(PID.TID 0000.0001) //         No. Y exchanges =              0
(PID.TID 0000.0001) //            Max. Y spins =              0
(PID.TID 0000.0001) //            Min. Y spins =     1000000000
(PID.TID 0000.0001) //          Total. Y spins =              0
(PID.TID 0000.0001) //            Avg. Y spins =       0.00E+00
(PID.TID 0000.0001) // o Tile number: 000189
(PID.TID 0000.0001) //         No. X exchanges =              0
(PID.TID 0000.0001) //            Max. X spins =              0
(PID.TID 0000.0001) //            Min. X spins =     1000000000
(PID.TID 0000.0001) //          Total. X spins =              0
(PID.TID 0000.0001) //            Avg. X spins =       0.00E+00
(PID.TID 0000.0001) //         No. Y exchanges =              0
(PID.TID 0000.0001) //            Max. Y spins =              0
(PID.TID 0000.0001) //            Min. Y spins =     1000000000
(PID.TID 0000.0001) //          Total. Y spins =              0
(PID.TID 0000.0001) //            Avg. Y spins =       0.00E+00
(PID.TID 0000.0001) // o Tile number: 000190
(PID.TID 0000.0001) //         No. X exchanges =              0
(PID.TID 0000.0001) //            Max. X spins =              0
(PID.TID 0000.0001) //            Min. X spins =     1000000000
(PID.TID 0000.0001) //          Total. X spins =              0
(PID.TID 0000.0001) //            Avg. X spins =       0.00E+00
(PID.TID 0000.0001) //         No. Y exchanges =              0
(PID.TID 0000.0001) //            Max. Y spins =              0
(PID.TID 0000.0001) //            Min. Y spins =     1000000000
(PID.TID 0000.0001) //          Total. Y spins =              0
(PID.TID 0000.0001) //            Avg. Y spins =       0.00E+00
(PID.TID 0000.0001) // o Tile number: 000191
(PID.TID 0000.0001) //         No. X exchanges =              0
(PID.TID 0000.0001) //            Max. X spins =              0
(PID.TID 0000.0001) //            Min. X spins =     1000000000
(PID.TID 0000.0001) //          Total. X spins =              0
(PID.TID 0000.0001) //            Avg. X spins =       0.00E+00
(PID.TID 0000.0001) //         No. Y exchanges =              0
(PID.TID 0000.0001) //            Max. Y spins =              0
(PID.TID 0000.0001) //            Min. Y spins =     1000000000
(PID.TID 0000.0001) //          Total. Y spins =              0
(PID.TID 0000.0001) //            Avg. Y spins =       0.00E+00
(PID.TID 0000.0001) // o Tile number: 000192
(PID.TID 0000.0001) //         No. X exchanges =              0
(PID.TID 0000.0001) //            Max. X spins =              0
(PID.TID 0000.0001) //            Min. X spins =     1000000000
(PID.TID 0000.0001) //          Total. X spins =              0
(PID.TID 0000.0001) //            Avg. X spins =       0.00E+00
(PID.TID 0000.0001) //         No. Y exchanges =              0
(PID.TID 0000.0001) //            Max. Y spins =              0
(PID.TID 0000.0001) //            Min. Y spins =     1000000000
(PID.TID 0000.0001) //          Total. Y spins =              0
(PID.TID 0000.0001) //            Avg. Y spins =       0.00E+00
(PID.TID 0000.0001) // o Tile number: 000193
(PID.TID 0000.0001) //         No. X exchanges =              0
(PID.TID 0000.0001) //            Max. X spins =              0
(PID.TID 0000.0001) //            Min. X spins =     1000000000
(PID.TID 0000.0001) //          Total. X spins =              0
(PID.TID 0000.0001) //            Avg. X spins =       0.00E+00
(PID.TID 0000.0001) //         No. Y exchanges =              0
(PID.TID 0000.0001) //            Max. Y spins =              0
(PID.TID 0000.0001) //            Min. Y spins =     1000000000
(PID.TID 0000.0001) //          Total. Y spins =              0
(PID.TID 0000.0001) //            Avg. Y spins =       0.00E+00
(PID.TID 0000.0001) // o Tile number: 000194
(PID.TID 0000.0001) //         No. X exchanges =              0
(PID.TID 0000.0001) //            Max. X spins =              0
(PID.TID 0000.0001) //            Min. X spins =     1000000000
(PID.TID 0000.0001) //          Total. X spins =              0
(PID.TID 0000.0001) //            Avg. X spins =       0.00E+00
(PID.TID 0000.0001) //         No. Y exchanges =              0
(PID.TID 0000.0001) //            Max. Y spins =              0
(PID.TID 0000.0001) //            Min. Y spins =     1000000000
(PID.TID 0000.0001) //          Total. Y spins =              0
(PID.TID 0000.0001) //            Avg. Y spins =       0.00E+00
(PID.TID 0000.0001) // o Tile number: 000195
(PID.TID 0000.0001) //         No. X exchanges =              0
(PID.TID 0000.0001) //            Max. X spins =              0
(PID.TID 0000.0001) //            Min. X spins =     1000000000
(PID.TID 0000.0001) //          Total. X spins =              0
(PID.TID 0000.0001) //            Avg. X spins =       0.00E+00
(PID.TID 0000.0001) //         No. Y exchanges =              0
(PID.TID 0000.0001) //            Max. Y spins =              0
(PID.TID 0000.0001) //            Min. Y spins =     1000000000
(PID.TID 0000.0001) //          Total. Y spins =              0
(PID.TID 0000.0001) //            Avg. Y spins =       0.00E+00
(PID.TID 0000.0001) // o Tile number: 000196
(PID.TID 0000.0001) //         No. X exchanges =              0
(PID.TID 0000.0001) //            Max. X spins =              0
(PID.TID 0000.0001) //            Min. X spins =     1000000000
(PID.TID 0000.0001) //          Total. X spins =              0
(PID.TID 0000.0001) //            Avg. X spins =       0.00E+00
(PID.TID 0000.0001) //         No. Y exchanges =              0
(PID.TID 0000.0001) //            Max. Y spins =              0
(PID.TID 0000.0001) //            Min. Y spins =     1000000000
(PID.TID 0000.0001) //          Total. Y spins =              0
(PID.TID 0000.0001) //            Avg. Y spins =       0.00E+00
(PID.TID 0000.0001) // o Tile number: 000197
(PID.TID 0000.0001) //         No. X exchanges =              0
(PID.TID 0000.0001) //            Max. X spins =              0
(PID.TID 0000.0001) //            Min. X spins =     1000000000
(PID.TID 0000.0001) //          Total. X spins =              0
(PID.TID 0000.0001) //            Avg. X spins =       0.00E+00
(PID.TID 0000.0001) //         No. Y exchanges =              0
(PID.TID 0000.0001) //            Max. Y spins =              0
(PID.TID 0000.0001) //            Min. Y spins =     1000000000
(PID.TID 0000.0001) //          Total. Y spins =              0
(PID.TID 0000.0001) //            Avg. Y spins =       0.00E+00
(PID.TID 0000.0001) // o Tile number: 000198
(PID.TID 0000.0001) //         No. X exchanges =              0
(PID.TID 0000.0001) //            Max. X spins =              0
(PID.TID 0000.0001) //            Min. X spins =     1000000000
(PID.TID 0000.0001) //          Total. X spins =              0
(PID.TID 0000.0001) //            Avg. X spins =       0.00E+00
(PID.TID 0000.0001) //         No. Y exchanges =              0
(PID.TID 0000.0001) //            Max. Y spins =              0
(PID.TID 0000.0001) //            Min. Y spins =     1000000000
(PID.TID 0000.0001) //          Total. Y spins =              0
(PID.TID 0000.0001) //            Avg. Y spins =       0.00E+00
(PID.TID 0000.0001) // o Tile number: 000199
(PID.TID 0000.0001) //         No. X exchanges =              0
(PID.TID 0000.0001) //            Max. X spins =              0
(PID.TID 0000.0001) //            Min. X spins =     1000000000
(PID.TID 0000.0001) //          Total. X spins =              0
(PID.TID 0000.0001) //            Avg. X spins =       0.00E+00
(PID.TID 0000.0001) //         No. Y exchanges =              0
(PID.TID 0000.0001) //            Max. Y spins =              0
(PID.TID 0000.0001) //            Min. Y spins =     1000000000
(PID.TID 0000.0001) //          Total. Y spins =              0
(PID.TID 0000.0001) //            Avg. Y spins =       0.00E+00
(PID.TID 0000.0001) // o Tile number: 000200
(PID.TID 0000.0001) //         No. X exchanges =              0
(PID.TID 0000.0001) //            Max. X spins =              0
(PID.TID 0000.0001) //            Min. X spins =     1000000000
(PID.TID 0000.0001) //          Total. X spins =              0
(PID.TID 0000.0001) //            Avg. X spins =       0.00E+00
(PID.TID 0000.0001) //         No. Y exchanges =              0
(PID.TID 0000.0001) //            Max. Y spins =              0
(PID.TID 0000.0001) //            Min. Y spins =     1000000000
(PID.TID 0000.0001) //          Total. Y spins =              0
(PID.TID 0000.0001) //            Avg. Y spins =       0.00E+00
(PID.TID 0000.0001) // o Tile number: 000201
(PID.TID 0000.0001) //         No. X exchanges =              0
(PID.TID 0000.0001) //            Max. X spins =              0
(PID.TID 0000.0001) //            Min. X spins =     1000000000
(PID.TID 0000.0001) //          Total. X spins =              0
(PID.TID 0000.0001) //            Avg. X spins =       0.00E+00
(PID.TID 0000.0001) //         No. Y exchanges =              0
(PID.TID 0000.0001) //            Max. Y spins =              0
(PID.TID 0000.0001) //            Min. Y spins =     1000000000
(PID.TID 0000.0001) //          Total. Y spins =              0
(PID.TID 0000.0001) //            Avg. Y spins =       0.00E+00
(PID.TID 0000.0001) // o Tile number: 000202
(PID.TID 0000.0001) //         No. X exchanges =              0
(PID.TID 0000.0001) //            Max. X spins =              0
(PID.TID 0000.0001) //            Min. X spins =     1000000000
(PID.TID 0000.0001) //          Total. X spins =              0
(PID.TID 0000.0001) //            Avg. X spins =       0.00E+00
(PID.TID 0000.0001) //         No. Y exchanges =              0
(PID.TID 0000.0001) //            Max. Y spins =              0
(PID.TID 0000.0001) //            Min. Y spins =     1000000000
(PID.TID 0000.0001) //          Total. Y spins =              0
(PID.TID 0000.0001) //            Avg. Y spins =       0.00E+00
(PID.TID 0000.0001) // o Tile number: 000203
(PID.TID 0000.0001) //         No. X exchanges =              0
(PID.TID 0000.0001) //            Max. X spins =              0
(PID.TID 0000.0001) //            Min. X spins =     1000000000
(PID.TID 0000.0001) //          Total. X spins =              0
(PID.TID 0000.0001) //            Avg. X spins =       0.00E+00
(PID.TID 0000.0001) //         No. Y exchanges =              0
(PID.TID 0000.0001) //            Max. Y spins =              0
(PID.TID 0000.0001) //            Min. Y spins =     1000000000
(PID.TID 0000.0001) //          Total. Y spins =              0
(PID.TID 0000.0001) //            Avg. Y spins =       0.00E+00
(PID.TID 0000.0001) // o Tile number: 000204
(PID.TID 0000.0001) //         No. X exchanges =              0
(PID.TID 0000.0001) //            Max. X spins =              0
(PID.TID 0000.0001) //            Min. X spins =     1000000000
(PID.TID 0000.0001) //          Total. X spins =              0
(PID.TID 0000.0001) //            Avg. X spins =       0.00E+00
(PID.TID 0000.0001) //         No. Y exchanges =              0
(PID.TID 0000.0001) //            Max. Y spins =              0
(PID.TID 0000.0001) //            Min. Y spins =     1000000000
(PID.TID 0000.0001) //          Total. Y spins =              0
(PID.TID 0000.0001) //            Avg. Y spins =       0.00E+00
(PID.TID 0000.0001) // o Tile number: 000205
(PID.TID 0000.0001) //         No. X exchanges =              0
(PID.TID 0000.0001) //            Max. X spins =              0
(PID.TID 0000.0001) //            Min. X spins =     1000000000
(PID.TID 0000.0001) //          Total. X spins =              0
(PID.TID 0000.0001) //            Avg. X spins =       0.00E+00
(PID.TID 0000.0001) //         No. Y exchanges =              0
(PID.TID 0000.0001) //            Max. Y spins =              0
(PID.TID 0000.0001) //            Min. Y spins =     1000000000
(PID.TID 0000.0001) //          Total. Y spins =              0
(PID.TID 0000.0001) //            Avg. Y spins =       0.00E+00
(PID.TID 0000.0001) // o Tile number: 000206
(PID.TID 0000.0001) //         No. X exchanges =              0
(PID.TID 0000.0001) //            Max. X spins =              0
(PID.TID 0000.0001) //            Min. X spins =     1000000000
(PID.TID 0000.0001) //          Total. X spins =              0
(PID.TID 0000.0001) //            Avg. X spins =       0.00E+00
(PID.TID 0000.0001) //         No. Y exchanges =              0
(PID.TID 0000.0001) //            Max. Y spins =              0
(PID.TID 0000.0001) //            Min. Y spins =     1000000000
(PID.TID 0000.0001) //          Total. Y spins =              0
(PID.TID 0000.0001) //            Avg. Y spins =       0.00E+00
(PID.TID 0000.0001) // o Tile number: 000207
(PID.TID 0000.0001) //         No. X exchanges =              0
(PID.TID 0000.0001) //            Max. X spins =              0
(PID.TID 0000.0001) //            Min. X spins =     1000000000
(PID.TID 0000.0001) //          Total. X spins =              0
(PID.TID 0000.0001) //            Avg. X spins =       0.00E+00
(PID.TID 0000.0001) //         No. Y exchanges =              0
(PID.TID 0000.0001) //            Max. Y spins =              0
(PID.TID 0000.0001) //            Min. Y spins =     1000000000
(PID.TID 0000.0001) //          Total. Y spins =              0
(PID.TID 0000.0001) //            Avg. Y spins =       0.00E+00
(PID.TID 0000.0001) // o Tile number: 000208
(PID.TID 0000.0001) //         No. X exchanges =              0
(PID.TID 0000.0001) //            Max. X spins =              0
(PID.TID 0000.0001) //            Min. X spins =     1000000000
(PID.TID 0000.0001) //          Total. X spins =              0
(PID.TID 0000.0001) //            Avg. X spins =       0.00E+00
(PID.TID 0000.0001) //         No. Y exchanges =              0
(PID.TID 0000.0001) //            Max. Y spins =              0
(PID.TID 0000.0001) //            Min. Y spins =     1000000000
(PID.TID 0000.0001) //          Total. Y spins =              0
(PID.TID 0000.0001) //            Avg. Y spins =       0.00E+00
(PID.TID 0000.0001) // o Tile number: 000209
(PID.TID 0000.0001) //         No. X exchanges =              0
(PID.TID 0000.0001) //            Max. X spins =              0
(PID.TID 0000.0001) //            Min. X spins =     1000000000
(PID.TID 0000.0001) //          Total. X spins =              0
(PID.TID 0000.0001) //            Avg. X spins =       0.00E+00
(PID.TID 0000.0001) //         No. Y exchanges =              0
(PID.TID 0000.0001) //            Max. Y spins =              0
(PID.TID 0000.0001) //            Min. Y spins =     1000000000
(PID.TID 0000.0001) //          Total. Y spins =              0
(PID.TID 0000.0001) //            Avg. Y spins =       0.00E+00
(PID.TID 0000.0001) // o Tile number: 000210
(PID.TID 0000.0001) //         No. X exchanges =              0
(PID.TID 0000.0001) //            Max. X spins =              0
(PID.TID 0000.0001) //            Min. X spins =     1000000000
(PID.TID 0000.0001) //          Total. X spins =              0
(PID.TID 0000.0001) //            Avg. X spins =       0.00E+00
(PID.TID 0000.0001) //         No. Y exchanges =              0
(PID.TID 0000.0001) //            Max. Y spins =              0
(PID.TID 0000.0001) //            Min. Y spins =     1000000000
(PID.TID 0000.0001) //          Total. Y spins =              0
(PID.TID 0000.0001) //            Avg. Y spins =       0.00E+00
(PID.TID 0000.0001) // o Tile number: 000211
(PID.TID 0000.0001) //         No. X exchanges =              0
(PID.TID 0000.0001) //            Max. X spins =              0
(PID.TID 0000.0001) //            Min. X spins =     1000000000
(PID.TID 0000.0001) //          Total. X spins =              0
(PID.TID 0000.0001) //            Avg. X spins =       0.00E+00
(PID.TID 0000.0001) //         No. Y exchanges =              0
(PID.TID 0000.0001) //            Max. Y spins =              0
(PID.TID 0000.0001) //            Min. Y spins =     1000000000
(PID.TID 0000.0001) //          Total. Y spins =              0
(PID.TID 0000.0001) //            Avg. Y spins =       0.00E+00
(PID.TID 0000.0001) // o Tile number: 000212
(PID.TID 0000.0001) //         No. X exchanges =              0
(PID.TID 0000.0001) //            Max. X spins =              0
(PID.TID 0000.0001) //            Min. X spins =     1000000000
(PID.TID 0000.0001) //          Total. X spins =              0
(PID.TID 0000.0001) //            Avg. X spins =       0.00E+00
(PID.TID 0000.0001) //         No. Y exchanges =              0
(PID.TID 0000.0001) //            Max. Y spins =              0
(PID.TID 0000.0001) //            Min. Y spins =     1000000000
(PID.TID 0000.0001) //          Total. Y spins =              0
(PID.TID 0000.0001) //            Avg. Y spins =       0.00E+00
(PID.TID 0000.0001) // o Tile number: 000213
(PID.TID 0000.0001) //         No. X exchanges =              0
(PID.TID 0000.0001) //            Max. X spins =              0
(PID.TID 0000.0001) //            Min. X spins =     1000000000
(PID.TID 0000.0001) //          Total. X spins =              0
(PID.TID 0000.0001) //            Avg. X spins =       0.00E+00
(PID.TID 0000.0001) //         No. Y exchanges =              0
(PID.TID 0000.0001) //            Max. Y spins =              0
(PID.TID 0000.0001) //            Min. Y spins =     1000000000
(PID.TID 0000.0001) //          Total. Y spins =              0
(PID.TID 0000.0001) //            Avg. Y spins =       0.00E+00
(PID.TID 0000.0001) // o Tile number: 000214
(PID.TID 0000.0001) //         No. X exchanges =              0
(PID.TID 0000.0001) //            Max. X spins =              0
(PID.TID 0000.0001) //            Min. X spins =     1000000000
(PID.TID 0000.0001) //          Total. X spins =              0
(PID.TID 0000.0001) //            Avg. X spins =       0.00E+00
(PID.TID 0000.0001) //         No. Y exchanges =              0
(PID.TID 0000.0001) //            Max. Y spins =              0
(PID.TID 0000.0001) //            Min. Y spins =     1000000000
(PID.TID 0000.0001) //          Total. Y spins =              0
(PID.TID 0000.0001) //            Avg. Y spins =       0.00E+00
(PID.TID 0000.0001) // o Tile number: 000215
(PID.TID 0000.0001) //         No. X exchanges =              0
(PID.TID 0000.0001) //            Max. X spins =              0
(PID.TID 0000.0001) //            Min. X spins =     1000000000
(PID.TID 0000.0001) //          Total. X spins =              0
(PID.TID 0000.0001) //            Avg. X spins =       0.00E+00
(PID.TID 0000.0001) //         No. Y exchanges =              0
(PID.TID 0000.0001) //            Max. Y spins =              0
(PID.TID 0000.0001) //            Min. Y spins =     1000000000
(PID.TID 0000.0001) //          Total. Y spins =              0
(PID.TID 0000.0001) //            Avg. Y spins =       0.00E+00
(PID.TID 0000.0001) // o Tile number: 000216
(PID.TID 0000.0001) //         No. X exchanges =              0
(PID.TID 0000.0001) //            Max. X spins =              0
(PID.TID 0000.0001) //            Min. X spins =     1000000000
(PID.TID 0000.0001) //          Total. X spins =              0
(PID.TID 0000.0001) //            Avg. X spins =       0.00E+00
(PID.TID 0000.0001) //         No. Y exchanges =              0
(PID.TID 0000.0001) //            Max. Y spins =              0
(PID.TID 0000.0001) //            Min. Y spins =     1000000000
(PID.TID 0000.0001) //          Total. Y spins =              0
(PID.TID 0000.0001) //            Avg. Y spins =       0.00E+00
(PID.TID 0000.0001) // o Tile number: 000217
(PID.TID 0000.0001) //         No. X exchanges =              0
(PID.TID 0000.0001) //            Max. X spins =              0
(PID.TID 0000.0001) //            Min. X spins =     1000000000
(PID.TID 0000.0001) //          Total. X spins =              0
(PID.TID 0000.0001) //            Avg. X spins =       0.00E+00
(PID.TID 0000.0001) //         No. Y exchanges =              0
(PID.TID 0000.0001) //            Max. Y spins =              0
(PID.TID 0000.0001) //            Min. Y spins =     1000000000
(PID.TID 0000.0001) //          Total. Y spins =              0
(PID.TID 0000.0001) //            Avg. Y spins =       0.00E+00
(PID.TID 0000.0001) // o Tile number: 000218
(PID.TID 0000.0001) //         No. X exchanges =              0
(PID.TID 0000.0001) //            Max. X spins =              0
(PID.TID 0000.0001) //            Min. X spins =     1000000000
(PID.TID 0000.0001) //          Total. X spins =              0
(PID.TID 0000.0001) //            Avg. X spins =       0.00E+00
(PID.TID 0000.0001) //         No. Y exchanges =              0
(PID.TID 0000.0001) //            Max. Y spins =              0
(PID.TID 0000.0001) //            Min. Y spins =     1000000000
(PID.TID 0000.0001) //          Total. Y spins =              0
(PID.TID 0000.0001) //            Avg. Y spins =       0.00E+00
(PID.TID 0000.0001) // o Tile number: 000219
(PID.TID 0000.0001) //         No. X exchanges =              0
(PID.TID 0000.0001) //            Max. X spins =              0
(PID.TID 0000.0001) //            Min. X spins =     1000000000
(PID.TID 0000.0001) //          Total. X spins =              0
(PID.TID 0000.0001) //            Avg. X spins =       0.00E+00
(PID.TID 0000.0001) //         No. Y exchanges =              0
(PID.TID 0000.0001) //            Max. Y spins =              0
(PID.TID 0000.0001) //            Min. Y spins =     1000000000
(PID.TID 0000.0001) //          Total. Y spins =              0
(PID.TID 0000.0001) //            Avg. Y spins =       0.00E+00
(PID.TID 0000.0001) // o Tile number: 000220
(PID.TID 0000.0001) //         No. X exchanges =              0
(PID.TID 0000.0001) //            Max. X spins =              0
(PID.TID 0000.0001) //            Min. X spins =     1000000000
(PID.TID 0000.0001) //          Total. X spins =              0
(PID.TID 0000.0001) //            Avg. X spins =       0.00E+00
(PID.TID 0000.0001) //         No. Y exchanges =              0
(PID.TID 0000.0001) //            Max. Y spins =              0
(PID.TID 0000.0001) //            Min. Y spins =     1000000000
(PID.TID 0000.0001) //          Total. Y spins =              0
(PID.TID 0000.0001) //            Avg. Y spins =       0.00E+00
(PID.TID 0000.0001) // o Tile number: 000221
(PID.TID 0000.0001) //         No. X exchanges =              0
(PID.TID 0000.0001) //            Max. X spins =              0
(PID.TID 0000.0001) //            Min. X spins =     1000000000
(PID.TID 0000.0001) //          Total. X spins =              0
(PID.TID 0000.0001) //            Avg. X spins =       0.00E+00
(PID.TID 0000.0001) //         No. Y exchanges =              0
(PID.TID 0000.0001) //            Max. Y spins =              0
(PID.TID 0000.0001) //            Min. Y spins =     1000000000
(PID.TID 0000.0001) //          Total. Y spins =              0
(PID.TID 0000.0001) //            Avg. Y spins =       0.00E+00
(PID.TID 0000.0001) // o Tile number: 000222
(PID.TID 0000.0001) //         No. X exchanges =              0
(PID.TID 0000.0001) //            Max. X spins =              0
(PID.TID 0000.0001) //            Min. X spins =     1000000000
(PID.TID 0000.0001) //          Total. X spins =              0
(PID.TID 0000.0001) //            Avg. X spins =       0.00E+00
(PID.TID 0000.0001) //         No. Y exchanges =              0
(PID.TID 0000.0001) //            Max. Y spins =              0
(PID.TID 0000.0001) //            Min. Y spins =     1000000000
(PID.TID 0000.0001) //          Total. Y spins =              0
(PID.TID 0000.0001) //            Avg. Y spins =       0.00E+00
(PID.TID 0000.0001) // o Tile number: 000223
(PID.TID 0000.0001) //         No. X exchanges =              0
(PID.TID 0000.0001) //            Max. X spins =              0
(PID.TID 0000.0001) //            Min. X spins =     1000000000
(PID.TID 0000.0001) //          Total. X spins =              0
(PID.TID 0000.0001) //            Avg. X spins =       0.00E+00
(PID.TID 0000.0001) //         No. Y exchanges =              0
(PID.TID 0000.0001) //            Max. Y spins =              0
(PID.TID 0000.0001) //            Min. Y spins =     1000000000
(PID.TID 0000.0001) //          Total. Y spins =              0
(PID.TID 0000.0001) //            Avg. Y spins =       0.00E+00
(PID.TID 0000.0001) // o Tile number: 000224
(PID.TID 0000.0001) //         No. X exchanges =              0
(PID.TID 0000.0001) //            Max. X spins =              0
(PID.TID 0000.0001) //            Min. X spins =     1000000000
(PID.TID 0000.0001) //          Total. X spins =              0
(PID.TID 0000.0001) //            Avg. X spins =       0.00E+00
(PID.TID 0000.0001) //         No. Y exchanges =              0
(PID.TID 0000.0001) //            Max. Y spins =              0
(PID.TID 0000.0001) //            Min. Y spins =     1000000000
(PID.TID 0000.0001) //          Total. Y spins =              0
(PID.TID 0000.0001) //            Avg. Y spins =       0.00E+00
(PID.TID 0000.0001) // o Tile number: 000225
(PID.TID 0000.0001) //         No. X exchanges =              0
(PID.TID 0000.0001) //            Max. X spins =              0
(PID.TID 0000.0001) //            Min. X spins =     1000000000
(PID.TID 0000.0001) //          Total. X spins =              0
(PID.TID 0000.0001) //            Avg. X spins =       0.00E+00
(PID.TID 0000.0001) //         No. Y exchanges =              0
(PID.TID 0000.0001) //            Max. Y spins =              0
(PID.TID 0000.0001) //            Min. Y spins =     1000000000
(PID.TID 0000.0001) //          Total. Y spins =              0
(PID.TID 0000.0001) //            Avg. Y spins =       0.00E+00
(PID.TID 0000.0001) // o Thread number: 000001
(PID.TID 0000.0001) //            No. barriers =         123802
(PID.TID 0000.0001) //      Max. barrier spins =              1
(PID.TID 0000.0001) //      Min. barrier spins =              1
(PID.TID 0000.0001) //     Total barrier spins =         123802
(PID.TID 0000.0001) //      Avg. barrier spins =       1.00E+00
PROGRAM MAIN: Execution ended Normally
