(PID.TID 0000.0001) 
(PID.TID 0000.0001) // ======================================================
(PID.TID 0000.0001) //                      MITgcm UV
(PID.TID 0000.0001) //                      =========
(PID.TID 0000.0001) // ======================================================
(PID.TID 0000.0001) // execution environment starting up...
(PID.TID 0000.0001) 
(PID.TID 0000.0001) // MITgcmUV version:  checkpoint68z
(PID.TID 0000.0001) // Build user:        estebancruz
(PID.TID 0000.0001) // Build host:        Estebanovich-MacBook-Pro.local
(PID.TID 0000.0001) // Build date:        Tue Oct  8 18:04:20 PDT 2024
(PID.TID 0000.0001) 
(PID.TID 0000.0001) // =======================================================
(PID.TID 0000.0001) // Execution Environment parameter file "eedata"
(PID.TID 0000.0001) // =======================================================
(PID.TID 0000.0001) ># Example "eedata" file
(PID.TID 0000.0001) ># Lines beginning "#" are comments
(PID.TID 0000.0001) >#  nTx      :: No. threads per process in X
(PID.TID 0000.0001) >#  nTy      :: No. threads per process in Y
(PID.TID 0000.0001) ># debugMode :: print debug msg (sequence of S/R calls)
(PID.TID 0000.0001) > &EEPARMS
(PID.TID 0000.0001) > nTx=1,
(PID.TID 0000.0001) > nTy=1,
(PID.TID 0000.0001) > /
(PID.TID 0000.0001) ># Note: Some systems use & as the namelist terminator (as shown here).
(PID.TID 0000.0001) >#       Other systems use a / character.
(PID.TID 0000.0001) 
(PID.TID 0000.0001) // =======================================================
(PID.TID 0000.0001) // Computational Grid Specification ( see files "SIZE.h" )
(PID.TID 0000.0001) //                                  ( and "eedata"       )
(PID.TID 0000.0001) // =======================================================
(PID.TID 0000.0001)      nPx =    1 ; /* No. processes in X */
(PID.TID 0000.0001)      nPy =    1 ; /* No. processes in Y */
(PID.TID 0000.0001)      nSx =   15 ; /* No. tiles in X per process */
(PID.TID 0000.0001)      nSy =   15 ; /* No. tiles in Y per process */
(PID.TID 0000.0001)      sNx =   16 ; /* Tile size in X */
(PID.TID 0000.0001)      sNy =   12 ; /* Tile size in Y */
(PID.TID 0000.0001)      OLx =    3 ; /* Tile overlap distance in X */
(PID.TID 0000.0001)      OLy =    3 ; /* Tile overlap distance in Y */
(PID.TID 0000.0001)      nTx =    1 ; /* No. threads in X per process */
(PID.TID 0000.0001)      nTy =    1 ; /* No. threads in Y per process */
(PID.TID 0000.0001)       Nr =   40 ; /* No. levels in the vertical   */
(PID.TID 0000.0001)       Nx =  240 ; /* Total domain size in X ( = nPx*nSx*sNx ) */
(PID.TID 0000.0001)       Ny =  180 ; /* Total domain size in Y ( = nPy*nSy*sNy ) */
(PID.TID 0000.0001)   nTiles =  225 ; /* Total no. tiles per process ( = nSx*nSy ) */
(PID.TID 0000.0001)   nProcs =    1 ; /* Total no. processes ( = nPx*nPy ) */
(PID.TID 0000.0001) nThreads =    1 ; /* Total no. threads per process ( = nTx*nTy ) */
(PID.TID 0000.0001) usingMPI =    F ; /* Flag used to control whether MPI is in use */
(PID.TID 0000.0001)                   /*  note: To execute a program with MPI calls */
(PID.TID 0000.0001)                   /*  it must be launched appropriately e.g     */
(PID.TID 0000.0001)                   /*  "mpirun -np 64 ......"                    */
(PID.TID 0000.0001) useCoupler=   F ; /* Flag used to control communications with   */
(PID.TID 0000.0001)                   /*  other model components, through a coupler */
(PID.TID 0000.0001) useNest2W_parent =    F ;/* Control 2-W Nesting comm */
(PID.TID 0000.0001) useNest2W_child  =    F ;/* Control 2-W Nesting comm */
(PID.TID 0000.0001) debugMode =    F ; /* print debug msg. (sequence of S/R calls)  */
(PID.TID 0000.0001) printMapIncludesZeros=    F ; /* print zeros in Std.Output maps */
(PID.TID 0000.0001) maxLengthPrt1D=   65 /* maxLength of 1D array printed to StdOut */
(PID.TID 0000.0001) 
(PID.TID 0000.0001) // ======================================================
(PID.TID 0000.0001) // Mapping of tiles to threads
(PID.TID 0000.0001) // ======================================================
(PID.TID 0000.0001) // -o- Thread   1, tiles (   1:  15,   1:  15)
(PID.TID 0000.0001) 
(PID.TID 0000.0001) // ======================================================
(PID.TID 0000.0001) // Tile <-> Tile connectvity table
(PID.TID 0000.0001) // ======================================================
(PID.TID 0000.0001) // Tile number: 000001 (process no. = 000000)
(PID.TID 0000.0001) //        WEST: Tile = 000015, Process = 000000, Comm = put
(PID.TID 0000.0001) //                bi = 000015, bj = 000001
(PID.TID 0000.0001) //        EAST: Tile = 000002, Process = 000000, Comm = put
(PID.TID 0000.0001) //                bi = 000002, bj = 000001
(PID.TID 0000.0001) //       SOUTH: Tile = 000211, Process = 000000, Comm = put
(PID.TID 0000.0001) //                bi = 000001, bj = 000015
(PID.TID 0000.0001) //       NORTH: Tile = 000016, Process = 000000, Comm = put
(PID.TID 0000.0001) //                bi = 000001, bj = 000002
(PID.TID 0000.0001) // Tile number: 000002 (process no. = 000000)
(PID.TID 0000.0001) //        WEST: Tile = 000001, Process = 000000, Comm = put
(PID.TID 0000.0001) //                bi = 000001, bj = 000001
(PID.TID 0000.0001) //        EAST: Tile = 000003, Process = 000000, Comm = put
(PID.TID 0000.0001) //                bi = 000003, bj = 000001
(PID.TID 0000.0001) //       SOUTH: Tile = 000212, Process = 000000, Comm = put
(PID.TID 0000.0001) //                bi = 000002, bj = 000015
(PID.TID 0000.0001) //       NORTH: Tile = 000017, Process = 000000, Comm = put
(PID.TID 0000.0001) //                bi = 000002, bj = 000002
(PID.TID 0000.0001) // Tile number: 000003 (process no. = 000000)
(PID.TID 0000.0001) //        WEST: Tile = 000002, Process = 000000, Comm = put
(PID.TID 0000.0001) //                bi = 000002, bj = 000001
(PID.TID 0000.0001) //        EAST: Tile = 000004, Process = 000000, Comm = put
(PID.TID 0000.0001) //                bi = 000004, bj = 000001
(PID.TID 0000.0001) //       SOUTH: Tile = 000213, Process = 000000, Comm = put
(PID.TID 0000.0001) //                bi = 000003, bj = 000015
(PID.TID 0000.0001) //       NORTH: Tile = 000018, Process = 000000, Comm = put
(PID.TID 0000.0001) //                bi = 000003, bj = 000002
(PID.TID 0000.0001) // Tile number: 000004 (process no. = 000000)
(PID.TID 0000.0001) //        WEST: Tile = 000003, Process = 000000, Comm = put
(PID.TID 0000.0001) //                bi = 000003, bj = 000001
(PID.TID 0000.0001) //        EAST: Tile = 000005, Process = 000000, Comm = put
(PID.TID 0000.0001) //                bi = 000005, bj = 000001
(PID.TID 0000.0001) //       SOUTH: Tile = 000214, Process = 000000, Comm = put
(PID.TID 0000.0001) //                bi = 000004, bj = 000015
(PID.TID 0000.0001) //       NORTH: Tile = 000019, Process = 000000, Comm = put
(PID.TID 0000.0001) //                bi = 000004, bj = 000002
(PID.TID 0000.0001) // Tile number: 000005 (process no. = 000000)
(PID.TID 0000.0001) //        WEST: Tile = 000004, Process = 000000, Comm = put
(PID.TID 0000.0001) //                bi = 000004, bj = 000001
(PID.TID 0000.0001) //        EAST: Tile = 000006, Process = 000000, Comm = put
(PID.TID 0000.0001) //                bi = 000006, bj = 000001
(PID.TID 0000.0001) //       SOUTH: Tile = 000215, Process = 000000, Comm = put
(PID.TID 0000.0001) //                bi = 000005, bj = 000015
(PID.TID 0000.0001) //       NORTH: Tile = 000020, Process = 000000, Comm = put
(PID.TID 0000.0001) //                bi = 000005, bj = 000002
(PID.TID 0000.0001) // Tile number: 000006 (process no. = 000000)
(PID.TID 0000.0001) //        WEST: Tile = 000005, Process = 000000, Comm = put
(PID.TID 0000.0001) //                bi = 000005, bj = 000001
(PID.TID 0000.0001) //        EAST: Tile = 000007, Process = 000000, Comm = put
(PID.TID 0000.0001) //                bi = 000007, bj = 000001
(PID.TID 0000.0001) //       SOUTH: Tile = 000216, Process = 000000, Comm = put
(PID.TID 0000.0001) //                bi = 000006, bj = 000015
(PID.TID 0000.0001) //       NORTH: Tile = 000021, Process = 000000, Comm = put
(PID.TID 0000.0001) //                bi = 000006, bj = 000002
(PID.TID 0000.0001) // Tile number: 000007 (process no. = 000000)
(PID.TID 0000.0001) //        WEST: Tile = 000006, Process = 000000, Comm = put
(PID.TID 0000.0001) //                bi = 000006, bj = 000001
(PID.TID 0000.0001) //        EAST: Tile = 000008, Process = 000000, Comm = put
(PID.TID 0000.0001) //                bi = 000008, bj = 000001
(PID.TID 0000.0001) //       SOUTH: Tile = 000217, Process = 000000, Comm = put
(PID.TID 0000.0001) //                bi = 000007, bj = 000015
(PID.TID 0000.0001) //       NORTH: Tile = 000022, Process = 000000, Comm = put
(PID.TID 0000.0001) //                bi = 000007, bj = 000002
(PID.TID 0000.0001) // Tile number: 000008 (process no. = 000000)
(PID.TID 0000.0001) //        WEST: Tile = 000007, Process = 000000, Comm = put
(PID.TID 0000.0001) //                bi = 000007, bj = 000001
(PID.TID 0000.0001) //        EAST: Tile = 000009, Process = 000000, Comm = put
(PID.TID 0000.0001) //                bi = 000009, bj = 000001
(PID.TID 0000.0001) //       SOUTH: Tile = 000218, Process = 000000, Comm = put
(PID.TID 0000.0001) //                bi = 000008, bj = 000015
(PID.TID 0000.0001) //       NORTH: Tile = 000023, Process = 000000, Comm = put
(PID.TID 0000.0001) //                bi = 000008, bj = 000002
(PID.TID 0000.0001) // Tile number: 000009 (process no. = 000000)
(PID.TID 0000.0001) //        WEST: Tile = 000008, Process = 000000, Comm = put
(PID.TID 0000.0001) //                bi = 000008, bj = 000001
(PID.TID 0000.0001) //        EAST: Tile = 000010, Process = 000000, Comm = put
(PID.TID 0000.0001) //                bi = 000010, bj = 000001
(PID.TID 0000.0001) //       SOUTH: Tile = 000219, Process = 000000, Comm = put
(PID.TID 0000.0001) //                bi = 000009, bj = 000015
(PID.TID 0000.0001) //       NORTH: Tile = 000024, Process = 000000, Comm = put
(PID.TID 0000.0001) //                bi = 000009, bj = 000002
(PID.TID 0000.0001) // Tile number: 000010 (process no. = 000000)
(PID.TID 0000.0001) //        WEST: Tile = 000009, Process = 000000, Comm = put
(PID.TID 0000.0001) //                bi = 000009, bj = 000001
(PID.TID 0000.0001) //        EAST: Tile = 000011, Process = 000000, Comm = put
(PID.TID 0000.0001) //                bi = 000011, bj = 000001
(PID.TID 0000.0001) //       SOUTH: Tile = 000220, Process = 000000, Comm = put
(PID.TID 0000.0001) //                bi = 000010, bj = 000015
(PID.TID 0000.0001) //       NORTH: Tile = 000025, Process = 000000, Comm = put
(PID.TID 0000.0001) //                bi = 000010, bj = 000002
(PID.TID 0000.0001) // Tile number: 000011 (process no. = 000000)
(PID.TID 0000.0001) //        WEST: Tile = 000010, Process = 000000, Comm = put
(PID.TID 0000.0001) //                bi = 000010, bj = 000001
(PID.TID 0000.0001) //        EAST: Tile = 000012, Process = 000000, Comm = put
(PID.TID 0000.0001) //                bi = 000012, bj = 000001
(PID.TID 0000.0001) //       SOUTH: Tile = 000221, Process = 000000, Comm = put
(PID.TID 0000.0001) //                bi = 000011, bj = 000015
(PID.TID 0000.0001) //       NORTH: Tile = 000026, Process = 000000, Comm = put
(PID.TID 0000.0001) //                bi = 000011, bj = 000002
(PID.TID 0000.0001) // Tile number: 000012 (process no. = 000000)
(PID.TID 0000.0001) //        WEST: Tile = 000011, Process = 000000, Comm = put
(PID.TID 0000.0001) //                bi = 000011, bj = 000001
(PID.TID 0000.0001) //        EAST: Tile = 000013, Process = 000000, Comm = put
(PID.TID 0000.0001) //                bi = 000013, bj = 000001
(PID.TID 0000.0001) //       SOUTH: Tile = 000222, Process = 000000, Comm = put
(PID.TID 0000.0001) //                bi = 000012, bj = 000015
(PID.TID 0000.0001) //       NORTH: Tile = 000027, Process = 000000, Comm = put
(PID.TID 0000.0001) //                bi = 000012, bj = 000002
(PID.TID 0000.0001) // Tile number: 000013 (process no. = 000000)
(PID.TID 0000.0001) //        WEST: Tile = 000012, Process = 000000, Comm = put
(PID.TID 0000.0001) //                bi = 000012, bj = 000001
(PID.TID 0000.0001) //        EAST: Tile = 000014, Process = 000000, Comm = put
(PID.TID 0000.0001) //                bi = 000014, bj = 000001
(PID.TID 0000.0001) //       SOUTH: Tile = 000223, Process = 000000, Comm = put
(PID.TID 0000.0001) //                bi = 000013, bj = 000015
(PID.TID 0000.0001) //       NORTH: Tile = 000028, Process = 000000, Comm = put
(PID.TID 0000.0001) //                bi = 000013, bj = 000002
(PID.TID 0000.0001) // Tile number: 000014 (process no. = 000000)
(PID.TID 0000.0001) //        WEST: Tile = 000013, Process = 000000, Comm = put
(PID.TID 0000.0001) //                bi = 000013, bj = 000001
(PID.TID 0000.0001) //        EAST: Tile = 000015, Process = 000000, Comm = put
(PID.TID 0000.0001) //                bi = 000015, bj = 000001
(PID.TID 0000.0001) //       SOUTH: Tile = 000224, Process = 000000, Comm = put
(PID.TID 0000.0001) //                bi = 000014, bj = 000015
(PID.TID 0000.0001) //       NORTH: Tile = 000029, Process = 000000, Comm = put
(PID.TID 0000.0001) //                bi = 000014, bj = 000002
(PID.TID 0000.0001) // Tile number: 000015 (process no. = 000000)
(PID.TID 0000.0001) //        WEST: Tile = 000014, Process = 000000, Comm = put
(PID.TID 0000.0001) //                bi = 000014, bj = 000001
(PID.TID 0000.0001) //        EAST: Tile = 000001, Process = 000000, Comm = put
(PID.TID 0000.0001) //                bi = 000001, bj = 000001
(PID.TID 0000.0001) //       SOUTH: Tile = 000225, Process = 000000, Comm = put
(PID.TID 0000.0001) //                bi = 000015, bj = 000015
(PID.TID 0000.0001) //       NORTH: Tile = 000030, Process = 000000, Comm = put
(PID.TID 0000.0001) //                bi = 000015, bj = 000002
(PID.TID 0000.0001) // Tile number: 000016 (process no. = 000000)
(PID.TID 0000.0001) //        WEST: Tile = 000030, Process = 000000, Comm = put
(PID.TID 0000.0001) //                bi = 000015, bj = 000002
(PID.TID 0000.0001) //        EAST: Tile = 000017, Process = 000000, Comm = put
(PID.TID 0000.0001) //                bi = 000002, bj = 000002
(PID.TID 0000.0001) //       SOUTH: Tile = 000001, Process = 000000, Comm = put
(PID.TID 0000.0001) //                bi = 000001, bj = 000001
(PID.TID 0000.0001) //       NORTH: Tile = 000031, Process = 000000, Comm = put
(PID.TID 0000.0001) //                bi = 000001, bj = 000003
(PID.TID 0000.0001) // Tile number: 000017 (process no. = 000000)
(PID.TID 0000.0001) //        WEST: Tile = 000016, Process = 000000, Comm = put
(PID.TID 0000.0001) //                bi = 000001, bj = 000002
(PID.TID 0000.0001) //        EAST: Tile = 000018, Process = 000000, Comm = put
(PID.TID 0000.0001) //                bi = 000003, bj = 000002
(PID.TID 0000.0001) //       SOUTH: Tile = 000002, Process = 000000, Comm = put
(PID.TID 0000.0001) //                bi = 000002, bj = 000001
(PID.TID 0000.0001) //       NORTH: Tile = 000032, Process = 000000, Comm = put
(PID.TID 0000.0001) //                bi = 000002, bj = 000003
(PID.TID 0000.0001) // Tile number: 000018 (process no. = 000000)
(PID.TID 0000.0001) //        WEST: Tile = 000017, Process = 000000, Comm = put
(PID.TID 0000.0001) //                bi = 000002, bj = 000002
(PID.TID 0000.0001) //        EAST: Tile = 000019, Process = 000000, Comm = put
(PID.TID 0000.0001) //                bi = 000004, bj = 000002
(PID.TID 0000.0001) //       SOUTH: Tile = 000003, Process = 000000, Comm = put
(PID.TID 0000.0001) //                bi = 000003, bj = 000001
(PID.TID 0000.0001) //       NORTH: Tile = 000033, Process = 000000, Comm = put
(PID.TID 0000.0001) //                bi = 000003, bj = 000003
(PID.TID 0000.0001) // Tile number: 000019 (process no. = 000000)
(PID.TID 0000.0001) //        WEST: Tile = 000018, Process = 000000, Comm = put
(PID.TID 0000.0001) //                bi = 000003, bj = 000002
(PID.TID 0000.0001) //        EAST: Tile = 000020, Process = 000000, Comm = put
(PID.TID 0000.0001) //                bi = 000005, bj = 000002
(PID.TID 0000.0001) //       SOUTH: Tile = 000004, Process = 000000, Comm = put
(PID.TID 0000.0001) //                bi = 000004, bj = 000001
(PID.TID 0000.0001) //       NORTH: Tile = 000034, Process = 000000, Comm = put
(PID.TID 0000.0001) //                bi = 000004, bj = 000003
(PID.TID 0000.0001) // Tile number: 000020 (process no. = 000000)
(PID.TID 0000.0001) //        WEST: Tile = 000019, Process = 000000, Comm = put
(PID.TID 0000.0001) //                bi = 000004, bj = 000002
(PID.TID 0000.0001) //        EAST: Tile = 000021, Process = 000000, Comm = put
(PID.TID 0000.0001) //                bi = 000006, bj = 000002
(PID.TID 0000.0001) //       SOUTH: Tile = 000005, Process = 000000, Comm = put
(PID.TID 0000.0001) //                bi = 000005, bj = 000001
(PID.TID 0000.0001) //       NORTH: Tile = 000035, Process = 000000, Comm = put
(PID.TID 0000.0001) //                bi = 000005, bj = 000003
(PID.TID 0000.0001) // Tile number: 000021 (process no. = 000000)
(PID.TID 0000.0001) //        WEST: Tile = 000020, Process = 000000, Comm = put
(PID.TID 0000.0001) //                bi = 000005, bj = 000002
(PID.TID 0000.0001) //        EAST: Tile = 000022, Process = 000000, Comm = put
(PID.TID 0000.0001) //                bi = 000007, bj = 000002
(PID.TID 0000.0001) //       SOUTH: Tile = 000006, Process = 000000, Comm = put
(PID.TID 0000.0001) //                bi = 000006, bj = 000001
(PID.TID 0000.0001) //       NORTH: Tile = 000036, Process = 000000, Comm = put
(PID.TID 0000.0001) //                bi = 000006, bj = 000003
(PID.TID 0000.0001) // Tile number: 000022 (process no. = 000000)
(PID.TID 0000.0001) //        WEST: Tile = 000021, Process = 000000, Comm = put
(PID.TID 0000.0001) //                bi = 000006, bj = 000002
(PID.TID 0000.0001) //        EAST: Tile = 000023, Process = 000000, Comm = put
(PID.TID 0000.0001) //                bi = 000008, bj = 000002
(PID.TID 0000.0001) //       SOUTH: Tile = 000007, Process = 000000, Comm = put
(PID.TID 0000.0001) //                bi = 000007, bj = 000001
(PID.TID 0000.0001) //       NORTH: Tile = 000037, Process = 000000, Comm = put
(PID.TID 0000.0001) //                bi = 000007, bj = 000003
(PID.TID 0000.0001) // Tile number: 000023 (process no. = 000000)
(PID.TID 0000.0001) //        WEST: Tile = 000022, Process = 000000, Comm = put
(PID.TID 0000.0001) //                bi = 000007, bj = 000002
(PID.TID 0000.0001) //        EAST: Tile = 000024, Process = 000000, Comm = put
(PID.TID 0000.0001) //                bi = 000009, bj = 000002
(PID.TID 0000.0001) //       SOUTH: Tile = 000008, Process = 000000, Comm = put
(PID.TID 0000.0001) //                bi = 000008, bj = 000001
(PID.TID 0000.0001) //       NORTH: Tile = 000038, Process = 000000, Comm = put
(PID.TID 0000.0001) //                bi = 000008, bj = 000003
(PID.TID 0000.0001) // Tile number: 000024 (process no. = 000000)
(PID.TID 0000.0001) //        WEST: Tile = 000023, Process = 000000, Comm = put
(PID.TID 0000.0001) //                bi = 000008, bj = 000002
(PID.TID 0000.0001) //        EAST: Tile = 000025, Process = 000000, Comm = put
(PID.TID 0000.0001) //                bi = 000010, bj = 000002
(PID.TID 0000.0001) //       SOUTH: Tile = 000009, Process = 000000, Comm = put
(PID.TID 0000.0001) //                bi = 000009, bj = 000001
(PID.TID 0000.0001) //       NORTH: Tile = 000039, Process = 000000, Comm = put
(PID.TID 0000.0001) //                bi = 000009, bj = 000003
(PID.TID 0000.0001) // Tile number: 000025 (process no. = 000000)
(PID.TID 0000.0001) //        WEST: Tile = 000024, Process = 000000, Comm = put
(PID.TID 0000.0001) //                bi = 000009, bj = 000002
(PID.TID 0000.0001) //        EAST: Tile = 000026, Process = 000000, Comm = put
(PID.TID 0000.0001) //                bi = 000011, bj = 000002
(PID.TID 0000.0001) //       SOUTH: Tile = 000010, Process = 000000, Comm = put
(PID.TID 0000.0001) //                bi = 000010, bj = 000001
(PID.TID 0000.0001) //       NORTH: Tile = 000040, Process = 000000, Comm = put
(PID.TID 0000.0001) //                bi = 000010, bj = 000003
(PID.TID 0000.0001) // Tile number: 000026 (process no. = 000000)
(PID.TID 0000.0001) //        WEST: Tile = 000025, Process = 000000, Comm = put
(PID.TID 0000.0001) //                bi = 000010, bj = 000002
(PID.TID 0000.0001) //        EAST: Tile = 000027, Process = 000000, Comm = put
(PID.TID 0000.0001) //                bi = 000012, bj = 000002
(PID.TID 0000.0001) //       SOUTH: Tile = 000011, Process = 000000, Comm = put
(PID.TID 0000.0001) //                bi = 000011, bj = 000001
(PID.TID 0000.0001) //       NORTH: Tile = 000041, Process = 000000, Comm = put
(PID.TID 0000.0001) //                bi = 000011, bj = 000003
(PID.TID 0000.0001) // Tile number: 000027 (process no. = 000000)
(PID.TID 0000.0001) //        WEST: Tile = 000026, Process = 000000, Comm = put
(PID.TID 0000.0001) //                bi = 000011, bj = 000002
(PID.TID 0000.0001) //        EAST: Tile = 000028, Process = 000000, Comm = put
(PID.TID 0000.0001) //                bi = 000013, bj = 000002
(PID.TID 0000.0001) //       SOUTH: Tile = 000012, Process = 000000, Comm = put
(PID.TID 0000.0001) //                bi = 000012, bj = 000001
(PID.TID 0000.0001) //       NORTH: Tile = 000042, Process = 000000, Comm = put
(PID.TID 0000.0001) //                bi = 000012, bj = 000003
(PID.TID 0000.0001) // Tile number: 000028 (process no. = 000000)
(PID.TID 0000.0001) //        WEST: Tile = 000027, Process = 000000, Comm = put
(PID.TID 0000.0001) //                bi = 000012, bj = 000002
(PID.TID 0000.0001) //        EAST: Tile = 000029, Process = 000000, Comm = put
(PID.TID 0000.0001) //                bi = 000014, bj = 000002
(PID.TID 0000.0001) //       SOUTH: Tile = 000013, Process = 000000, Comm = put
(PID.TID 0000.0001) //                bi = 000013, bj = 000001
(PID.TID 0000.0001) //       NORTH: Tile = 000043, Process = 000000, Comm = put
(PID.TID 0000.0001) //                bi = 000013, bj = 000003
(PID.TID 0000.0001) // Tile number: 000029 (process no. = 000000)
(PID.TID 0000.0001) //        WEST: Tile = 000028, Process = 000000, Comm = put
(PID.TID 0000.0001) //                bi = 000013, bj = 000002
(PID.TID 0000.0001) //        EAST: Tile = 000030, Process = 000000, Comm = put
(PID.TID 0000.0001) //                bi = 000015, bj = 000002
(PID.TID 0000.0001) //       SOUTH: Tile = 000014, Process = 000000, Comm = put
(PID.TID 0000.0001) //                bi = 000014, bj = 000001
(PID.TID 0000.0001) //       NORTH: Tile = 000044, Process = 000000, Comm = put
(PID.TID 0000.0001) //                bi = 000014, bj = 000003
(PID.TID 0000.0001) // Tile number: 000030 (process no. = 000000)
(PID.TID 0000.0001) //        WEST: Tile = 000029, Process = 000000, Comm = put
(PID.TID 0000.0001) //                bi = 000014, bj = 000002
(PID.TID 0000.0001) //        EAST: Tile = 000016, Process = 000000, Comm = put
(PID.TID 0000.0001) //                bi = 000001, bj = 000002
(PID.TID 0000.0001) //       SOUTH: Tile = 000015, Process = 000000, Comm = put
(PID.TID 0000.0001) //                bi = 000015, bj = 000001
(PID.TID 0000.0001) //       NORTH: Tile = 000045, Process = 000000, Comm = put
(PID.TID 0000.0001) //                bi = 000015, bj = 000003
(PID.TID 0000.0001) // Tile number: 000031 (process no. = 000000)
(PID.TID 0000.0001) //        WEST: Tile = 000045, Process = 000000, Comm = put
(PID.TID 0000.0001) //                bi = 000015, bj = 000003
(PID.TID 0000.0001) //        EAST: Tile = 000032, Process = 000000, Comm = put
(PID.TID 0000.0001) //                bi = 000002, bj = 000003
(PID.TID 0000.0001) //       SOUTH: Tile = 000016, Process = 000000, Comm = put
(PID.TID 0000.0001) //                bi = 000001, bj = 000002
(PID.TID 0000.0001) //       NORTH: Tile = 000046, Process = 000000, Comm = put
(PID.TID 0000.0001) //                bi = 000001, bj = 000004
(PID.TID 0000.0001) // Tile number: 000032 (process no. = 000000)
(PID.TID 0000.0001) //        WEST: Tile = 000031, Process = 000000, Comm = put
(PID.TID 0000.0001) //                bi = 000001, bj = 000003
(PID.TID 0000.0001) //        EAST: Tile = 000033, Process = 000000, Comm = put
(PID.TID 0000.0001) //                bi = 000003, bj = 000003
(PID.TID 0000.0001) //       SOUTH: Tile = 000017, Process = 000000, Comm = put
(PID.TID 0000.0001) //                bi = 000002, bj = 000002
(PID.TID 0000.0001) //       NORTH: Tile = 000047, Process = 000000, Comm = put
(PID.TID 0000.0001) //                bi = 000002, bj = 000004
(PID.TID 0000.0001) // Tile number: 000033 (process no. = 000000)
(PID.TID 0000.0001) //        WEST: Tile = 000032, Process = 000000, Comm = put
(PID.TID 0000.0001) //                bi = 000002, bj = 000003
(PID.TID 0000.0001) //        EAST: Tile = 000034, Process = 000000, Comm = put
(PID.TID 0000.0001) //                bi = 000004, bj = 000003
(PID.TID 0000.0001) //       SOUTH: Tile = 000018, Process = 000000, Comm = put
(PID.TID 0000.0001) //                bi = 000003, bj = 000002
(PID.TID 0000.0001) //       NORTH: Tile = 000048, Process = 000000, Comm = put
(PID.TID 0000.0001) //                bi = 000003, bj = 000004
(PID.TID 0000.0001) // Tile number: 000034 (process no. = 000000)
(PID.TID 0000.0001) //        WEST: Tile = 000033, Process = 000000, Comm = put
(PID.TID 0000.0001) //                bi = 000003, bj = 000003
(PID.TID 0000.0001) //        EAST: Tile = 000035, Process = 000000, Comm = put
(PID.TID 0000.0001) //                bi = 000005, bj = 000003
(PID.TID 0000.0001) //       SOUTH: Tile = 000019, Process = 000000, Comm = put
(PID.TID 0000.0001) //                bi = 000004, bj = 000002
(PID.TID 0000.0001) //       NORTH: Tile = 000049, Process = 000000, Comm = put
(PID.TID 0000.0001) //                bi = 000004, bj = 000004
(PID.TID 0000.0001) // Tile number: 000035 (process no. = 000000)
(PID.TID 0000.0001) //        WEST: Tile = 000034, Process = 000000, Comm = put
(PID.TID 0000.0001) //                bi = 000004, bj = 000003
(PID.TID 0000.0001) //        EAST: Tile = 000036, Process = 000000, Comm = put
(PID.TID 0000.0001) //                bi = 000006, bj = 000003
(PID.TID 0000.0001) //       SOUTH: Tile = 000020, Process = 000000, Comm = put
(PID.TID 0000.0001) //                bi = 000005, bj = 000002
(PID.TID 0000.0001) //       NORTH: Tile = 000050, Process = 000000, Comm = put
(PID.TID 0000.0001) //                bi = 000005, bj = 000004
(PID.TID 0000.0001) // Tile number: 000036 (process no. = 000000)
(PID.TID 0000.0001) //        WEST: Tile = 000035, Process = 000000, Comm = put
(PID.TID 0000.0001) //                bi = 000005, bj = 000003
(PID.TID 0000.0001) //        EAST: Tile = 000037, Process = 000000, Comm = put
(PID.TID 0000.0001) //                bi = 000007, bj = 000003
(PID.TID 0000.0001) //       SOUTH: Tile = 000021, Process = 000000, Comm = put
(PID.TID 0000.0001) //                bi = 000006, bj = 000002
(PID.TID 0000.0001) //       NORTH: Tile = 000051, Process = 000000, Comm = put
(PID.TID 0000.0001) //                bi = 000006, bj = 000004
(PID.TID 0000.0001) // Tile number: 000037 (process no. = 000000)
(PID.TID 0000.0001) //        WEST: Tile = 000036, Process = 000000, Comm = put
(PID.TID 0000.0001) //                bi = 000006, bj = 000003
(PID.TID 0000.0001) //        EAST: Tile = 000038, Process = 000000, Comm = put
(PID.TID 0000.0001) //                bi = 000008, bj = 000003
(PID.TID 0000.0001) //       SOUTH: Tile = 000022, Process = 000000, Comm = put
(PID.TID 0000.0001) //                bi = 000007, bj = 000002
(PID.TID 0000.0001) //       NORTH: Tile = 000052, Process = 000000, Comm = put
(PID.TID 0000.0001) //                bi = 000007, bj = 000004
(PID.TID 0000.0001) // Tile number: 000038 (process no. = 000000)
(PID.TID 0000.0001) //        WEST: Tile = 000037, Process = 000000, Comm = put
(PID.TID 0000.0001) //                bi = 000007, bj = 000003
(PID.TID 0000.0001) //        EAST: Tile = 000039, Process = 000000, Comm = put
(PID.TID 0000.0001) //                bi = 000009, bj = 000003
(PID.TID 0000.0001) //       SOUTH: Tile = 000023, Process = 000000, Comm = put
(PID.TID 0000.0001) //                bi = 000008, bj = 000002
(PID.TID 0000.0001) //       NORTH: Tile = 000053, Process = 000000, Comm = put
(PID.TID 0000.0001) //                bi = 000008, bj = 000004
(PID.TID 0000.0001) // Tile number: 000039 (process no. = 000000)
(PID.TID 0000.0001) //        WEST: Tile = 000038, Process = 000000, Comm = put
(PID.TID 0000.0001) //                bi = 000008, bj = 000003
(PID.TID 0000.0001) //        EAST: Tile = 000040, Process = 000000, Comm = put
(PID.TID 0000.0001) //                bi = 000010, bj = 000003
(PID.TID 0000.0001) //       SOUTH: Tile = 000024, Process = 000000, Comm = put
(PID.TID 0000.0001) //                bi = 000009, bj = 000002
(PID.TID 0000.0001) //       NORTH: Tile = 000054, Process = 000000, Comm = put
(PID.TID 0000.0001) //                bi = 000009, bj = 000004
(PID.TID 0000.0001) // Tile number: 000040 (process no. = 000000)
(PID.TID 0000.0001) //        WEST: Tile = 000039, Process = 000000, Comm = put
(PID.TID 0000.0001) //                bi = 000009, bj = 000003
(PID.TID 0000.0001) //        EAST: Tile = 000041, Process = 000000, Comm = put
(PID.TID 0000.0001) //                bi = 000011, bj = 000003
(PID.TID 0000.0001) //       SOUTH: Tile = 000025, Process = 000000, Comm = put
(PID.TID 0000.0001) //                bi = 000010, bj = 000002
(PID.TID 0000.0001) //       NORTH: Tile = 000055, Process = 000000, Comm = put
(PID.TID 0000.0001) //                bi = 000010, bj = 000004
(PID.TID 0000.0001) // Tile number: 000041 (process no. = 000000)
(PID.TID 0000.0001) //        WEST: Tile = 000040, Process = 000000, Comm = put
(PID.TID 0000.0001) //                bi = 000010, bj = 000003
(PID.TID 0000.0001) //        EAST: Tile = 000042, Process = 000000, Comm = put
(PID.TID 0000.0001) //                bi = 000012, bj = 000003
(PID.TID 0000.0001) //       SOUTH: Tile = 000026, Process = 000000, Comm = put
(PID.TID 0000.0001) //                bi = 000011, bj = 000002
(PID.TID 0000.0001) //       NORTH: Tile = 000056, Process = 000000, Comm = put
(PID.TID 0000.0001) //                bi = 000011, bj = 000004
(PID.TID 0000.0001) // Tile number: 000042 (process no. = 000000)
(PID.TID 0000.0001) //        WEST: Tile = 000041, Process = 000000, Comm = put
(PID.TID 0000.0001) //                bi = 000011, bj = 000003
(PID.TID 0000.0001) //        EAST: Tile = 000043, Process = 000000, Comm = put
(PID.TID 0000.0001) //                bi = 000013, bj = 000003
(PID.TID 0000.0001) //       SOUTH: Tile = 000027, Process = 000000, Comm = put
(PID.TID 0000.0001) //                bi = 000012, bj = 000002
(PID.TID 0000.0001) //       NORTH: Tile = 000057, Process = 000000, Comm = put
(PID.TID 0000.0001) //                bi = 000012, bj = 000004
(PID.TID 0000.0001) // Tile number: 000043 (process no. = 000000)
(PID.TID 0000.0001) //        WEST: Tile = 000042, Process = 000000, Comm = put
(PID.TID 0000.0001) //                bi = 000012, bj = 000003
(PID.TID 0000.0001) //        EAST: Tile = 000044, Process = 000000, Comm = put
(PID.TID 0000.0001) //                bi = 000014, bj = 000003
(PID.TID 0000.0001) //       SOUTH: Tile = 000028, Process = 000000, Comm = put
(PID.TID 0000.0001) //                bi = 000013, bj = 000002
(PID.TID 0000.0001) //       NORTH: Tile = 000058, Process = 000000, Comm = put
(PID.TID 0000.0001) //                bi = 000013, bj = 000004
(PID.TID 0000.0001) // Tile number: 000044 (process no. = 000000)
(PID.TID 0000.0001) //        WEST: Tile = 000043, Process = 000000, Comm = put
(PID.TID 0000.0001) //                bi = 000013, bj = 000003
(PID.TID 0000.0001) //        EAST: Tile = 000045, Process = 000000, Comm = put
(PID.TID 0000.0001) //                bi = 000015, bj = 000003
(PID.TID 0000.0001) //       SOUTH: Tile = 000029, Process = 000000, Comm = put
(PID.TID 0000.0001) //                bi = 000014, bj = 000002
(PID.TID 0000.0001) //       NORTH: Tile = 000059, Process = 000000, Comm = put
(PID.TID 0000.0001) //                bi = 000014, bj = 000004
(PID.TID 0000.0001) // Tile number: 000045 (process no. = 000000)
(PID.TID 0000.0001) //        WEST: Tile = 000044, Process = 000000, Comm = put
(PID.TID 0000.0001) //                bi = 000014, bj = 000003
(PID.TID 0000.0001) //        EAST: Tile = 000031, Process = 000000, Comm = put
(PID.TID 0000.0001) //                bi = 000001, bj = 000003
(PID.TID 0000.0001) //       SOUTH: Tile = 000030, Process = 000000, Comm = put
(PID.TID 0000.0001) //                bi = 000015, bj = 000002
(PID.TID 0000.0001) //       NORTH: Tile = 000060, Process = 000000, Comm = put
(PID.TID 0000.0001) //                bi = 000015, bj = 000004
(PID.TID 0000.0001) // Tile number: 000046 (process no. = 000000)
(PID.TID 0000.0001) //        WEST: Tile = 000060, Process = 000000, Comm = put
(PID.TID 0000.0001) //                bi = 000015, bj = 000004
(PID.TID 0000.0001) //        EAST: Tile = 000047, Process = 000000, Comm = put
(PID.TID 0000.0001) //                bi = 000002, bj = 000004
(PID.TID 0000.0001) //       SOUTH: Tile = 000031, Process = 000000, Comm = put
(PID.TID 0000.0001) //                bi = 000001, bj = 000003
(PID.TID 0000.0001) //       NORTH: Tile = 000061, Process = 000000, Comm = put
(PID.TID 0000.0001) //                bi = 000001, bj = 000005
(PID.TID 0000.0001) // Tile number: 000047 (process no. = 000000)
(PID.TID 0000.0001) //        WEST: Tile = 000046, Process = 000000, Comm = put
(PID.TID 0000.0001) //                bi = 000001, bj = 000004
(PID.TID 0000.0001) //        EAST: Tile = 000048, Process = 000000, Comm = put
(PID.TID 0000.0001) //                bi = 000003, bj = 000004
(PID.TID 0000.0001) //       SOUTH: Tile = 000032, Process = 000000, Comm = put
(PID.TID 0000.0001) //                bi = 000002, bj = 000003
(PID.TID 0000.0001) //       NORTH: Tile = 000062, Process = 000000, Comm = put
(PID.TID 0000.0001) //                bi = 000002, bj = 000005
(PID.TID 0000.0001) // Tile number: 000048 (process no. = 000000)
(PID.TID 0000.0001) //        WEST: Tile = 000047, Process = 000000, Comm = put
(PID.TID 0000.0001) //                bi = 000002, bj = 000004
(PID.TID 0000.0001) //        EAST: Tile = 000049, Process = 000000, Comm = put
(PID.TID 0000.0001) //                bi = 000004, bj = 000004
(PID.TID 0000.0001) //       SOUTH: Tile = 000033, Process = 000000, Comm = put
(PID.TID 0000.0001) //                bi = 000003, bj = 000003
(PID.TID 0000.0001) //       NORTH: Tile = 000063, Process = 000000, Comm = put
(PID.TID 0000.0001) //                bi = 000003, bj = 000005
(PID.TID 0000.0001) // Tile number: 000049 (process no. = 000000)
(PID.TID 0000.0001) //        WEST: Tile = 000048, Process = 000000, Comm = put
(PID.TID 0000.0001) //                bi = 000003, bj = 000004
(PID.TID 0000.0001) //        EAST: Tile = 000050, Process = 000000, Comm = put
(PID.TID 0000.0001) //                bi = 000005, bj = 000004
(PID.TID 0000.0001) //       SOUTH: Tile = 000034, Process = 000000, Comm = put
(PID.TID 0000.0001) //                bi = 000004, bj = 000003
(PID.TID 0000.0001) //       NORTH: Tile = 000064, Process = 000000, Comm = put
(PID.TID 0000.0001) //                bi = 000004, bj = 000005
(PID.TID 0000.0001) // Tile number: 000050 (process no. = 000000)
(PID.TID 0000.0001) //        WEST: Tile = 000049, Process = 000000, Comm = put
(PID.TID 0000.0001) //                bi = 000004, bj = 000004
(PID.TID 0000.0001) //        EAST: Tile = 000051, Process = 000000, Comm = put
(PID.TID 0000.0001) //                bi = 000006, bj = 000004
(PID.TID 0000.0001) //       SOUTH: Tile = 000035, Process = 000000, Comm = put
(PID.TID 0000.0001) //                bi = 000005, bj = 000003
(PID.TID 0000.0001) //       NORTH: Tile = 000065, Process = 000000, Comm = put
(PID.TID 0000.0001) //                bi = 000005, bj = 000005
(PID.TID 0000.0001) // Tile number: 000051 (process no. = 000000)
(PID.TID 0000.0001) //        WEST: Tile = 000050, Process = 000000, Comm = put
(PID.TID 0000.0001) //                bi = 000005, bj = 000004
(PID.TID 0000.0001) //        EAST: Tile = 000052, Process = 000000, Comm = put
(PID.TID 0000.0001) //                bi = 000007, bj = 000004
(PID.TID 0000.0001) //       SOUTH: Tile = 000036, Process = 000000, Comm = put
(PID.TID 0000.0001) //                bi = 000006, bj = 000003
(PID.TID 0000.0001) //       NORTH: Tile = 000066, Process = 000000, Comm = put
(PID.TID 0000.0001) //                bi = 000006, bj = 000005
(PID.TID 0000.0001) // Tile number: 000052 (process no. = 000000)
(PID.TID 0000.0001) //        WEST: Tile = 000051, Process = 000000, Comm = put
(PID.TID 0000.0001) //                bi = 000006, bj = 000004
(PID.TID 0000.0001) //        EAST: Tile = 000053, Process = 000000, Comm = put
(PID.TID 0000.0001) //                bi = 000008, bj = 000004
(PID.TID 0000.0001) //       SOUTH: Tile = 000037, Process = 000000, Comm = put
(PID.TID 0000.0001) //                bi = 000007, bj = 000003
(PID.TID 0000.0001) //       NORTH: Tile = 000067, Process = 000000, Comm = put
(PID.TID 0000.0001) //                bi = 000007, bj = 000005
(PID.TID 0000.0001) // Tile number: 000053 (process no. = 000000)
(PID.TID 0000.0001) //        WEST: Tile = 000052, Process = 000000, Comm = put
(PID.TID 0000.0001) //                bi = 000007, bj = 000004
(PID.TID 0000.0001) //        EAST: Tile = 000054, Process = 000000, Comm = put
(PID.TID 0000.0001) //                bi = 000009, bj = 000004
(PID.TID 0000.0001) //       SOUTH: Tile = 000038, Process = 000000, Comm = put
(PID.TID 0000.0001) //                bi = 000008, bj = 000003
(PID.TID 0000.0001) //       NORTH: Tile = 000068, Process = 000000, Comm = put
(PID.TID 0000.0001) //                bi = 000008, bj = 000005
(PID.TID 0000.0001) // Tile number: 000054 (process no. = 000000)
(PID.TID 0000.0001) //        WEST: Tile = 000053, Process = 000000, Comm = put
(PID.TID 0000.0001) //                bi = 000008, bj = 000004
(PID.TID 0000.0001) //        EAST: Tile = 000055, Process = 000000, Comm = put
(PID.TID 0000.0001) //                bi = 000010, bj = 000004
(PID.TID 0000.0001) //       SOUTH: Tile = 000039, Process = 000000, Comm = put
(PID.TID 0000.0001) //                bi = 000009, bj = 000003
(PID.TID 0000.0001) //       NORTH: Tile = 000069, Process = 000000, Comm = put
(PID.TID 0000.0001) //                bi = 000009, bj = 000005
(PID.TID 0000.0001) // Tile number: 000055 (process no. = 000000)
(PID.TID 0000.0001) //        WEST: Tile = 000054, Process = 000000, Comm = put
(PID.TID 0000.0001) //                bi = 000009, bj = 000004
(PID.TID 0000.0001) //        EAST: Tile = 000056, Process = 000000, Comm = put
(PID.TID 0000.0001) //                bi = 000011, bj = 000004
(PID.TID 0000.0001) //       SOUTH: Tile = 000040, Process = 000000, Comm = put
(PID.TID 0000.0001) //                bi = 000010, bj = 000003
(PID.TID 0000.0001) //       NORTH: Tile = 000070, Process = 000000, Comm = put
(PID.TID 0000.0001) //                bi = 000010, bj = 000005
(PID.TID 0000.0001) // Tile number: 000056 (process no. = 000000)
(PID.TID 0000.0001) //        WEST: Tile = 000055, Process = 000000, Comm = put
(PID.TID 0000.0001) //                bi = 000010, bj = 000004
(PID.TID 0000.0001) //        EAST: Tile = 000057, Process = 000000, Comm = put
(PID.TID 0000.0001) //                bi = 000012, bj = 000004
(PID.TID 0000.0001) //       SOUTH: Tile = 000041, Process = 000000, Comm = put
(PID.TID 0000.0001) //                bi = 000011, bj = 000003
(PID.TID 0000.0001) //       NORTH: Tile = 000071, Process = 000000, Comm = put
(PID.TID 0000.0001) //                bi = 000011, bj = 000005
(PID.TID 0000.0001) // Tile number: 000057 (process no. = 000000)
(PID.TID 0000.0001) //        WEST: Tile = 000056, Process = 000000, Comm = put
(PID.TID 0000.0001) //                bi = 000011, bj = 000004
(PID.TID 0000.0001) //        EAST: Tile = 000058, Process = 000000, Comm = put
(PID.TID 0000.0001) //                bi = 000013, bj = 000004
(PID.TID 0000.0001) //       SOUTH: Tile = 000042, Process = 000000, Comm = put
(PID.TID 0000.0001) //                bi = 000012, bj = 000003
(PID.TID 0000.0001) //       NORTH: Tile = 000072, Process = 000000, Comm = put
(PID.TID 0000.0001) //                bi = 000012, bj = 000005
(PID.TID 0000.0001) // Tile number: 000058 (process no. = 000000)
(PID.TID 0000.0001) //        WEST: Tile = 000057, Process = 000000, Comm = put
(PID.TID 0000.0001) //                bi = 000012, bj = 000004
(PID.TID 0000.0001) //        EAST: Tile = 000059, Process = 000000, Comm = put
(PID.TID 0000.0001) //                bi = 000014, bj = 000004
(PID.TID 0000.0001) //       SOUTH: Tile = 000043, Process = 000000, Comm = put
(PID.TID 0000.0001) //                bi = 000013, bj = 000003
(PID.TID 0000.0001) //       NORTH: Tile = 000073, Process = 000000, Comm = put
(PID.TID 0000.0001) //                bi = 000013, bj = 000005
(PID.TID 0000.0001) // Tile number: 000059 (process no. = 000000)
(PID.TID 0000.0001) //        WEST: Tile = 000058, Process = 000000, Comm = put
(PID.TID 0000.0001) //                bi = 000013, bj = 000004
(PID.TID 0000.0001) //        EAST: Tile = 000060, Process = 000000, Comm = put
(PID.TID 0000.0001) //                bi = 000015, bj = 000004
(PID.TID 0000.0001) //       SOUTH: Tile = 000044, Process = 000000, Comm = put
(PID.TID 0000.0001) //                bi = 000014, bj = 000003
(PID.TID 0000.0001) //       NORTH: Tile = 000074, Process = 000000, Comm = put
(PID.TID 0000.0001) //                bi = 000014, bj = 000005
(PID.TID 0000.0001) // Tile number: 000060 (process no. = 000000)
(PID.TID 0000.0001) //        WEST: Tile = 000059, Process = 000000, Comm = put
(PID.TID 0000.0001) //                bi = 000014, bj = 000004
(PID.TID 0000.0001) //        EAST: Tile = 000046, Process = 000000, Comm = put
(PID.TID 0000.0001) //                bi = 000001, bj = 000004
(PID.TID 0000.0001) //       SOUTH: Tile = 000045, Process = 000000, Comm = put
(PID.TID 0000.0001) //                bi = 000015, bj = 000003
(PID.TID 0000.0001) //       NORTH: Tile = 000075, Process = 000000, Comm = put
(PID.TID 0000.0001) //                bi = 000015, bj = 000005
(PID.TID 0000.0001) // Tile number: 000061 (process no. = 000000)
(PID.TID 0000.0001) //        WEST: Tile = 000075, Process = 000000, Comm = put
(PID.TID 0000.0001) //                bi = 000015, bj = 000005
(PID.TID 0000.0001) //        EAST: Tile = 000062, Process = 000000, Comm = put
(PID.TID 0000.0001) //                bi = 000002, bj = 000005
(PID.TID 0000.0001) //       SOUTH: Tile = 000046, Process = 000000, Comm = put
(PID.TID 0000.0001) //                bi = 000001, bj = 000004
(PID.TID 0000.0001) //       NORTH: Tile = 000076, Process = 000000, Comm = put
(PID.TID 0000.0001) //                bi = 000001, bj = 000006
(PID.TID 0000.0001) // Tile number: 000062 (process no. = 000000)
(PID.TID 0000.0001) //        WEST: Tile = 000061, Process = 000000, Comm = put
(PID.TID 0000.0001) //                bi = 000001, bj = 000005
(PID.TID 0000.0001) //        EAST: Tile = 000063, Process = 000000, Comm = put
(PID.TID 0000.0001) //                bi = 000003, bj = 000005
(PID.TID 0000.0001) //       SOUTH: Tile = 000047, Process = 000000, Comm = put
(PID.TID 0000.0001) //                bi = 000002, bj = 000004
(PID.TID 0000.0001) //       NORTH: Tile = 000077, Process = 000000, Comm = put
(PID.TID 0000.0001) //                bi = 000002, bj = 000006
(PID.TID 0000.0001) // Tile number: 000063 (process no. = 000000)
(PID.TID 0000.0001) //        WEST: Tile = 000062, Process = 000000, Comm = put
(PID.TID 0000.0001) //                bi = 000002, bj = 000005
(PID.TID 0000.0001) //        EAST: Tile = 000064, Process = 000000, Comm = put
(PID.TID 0000.0001) //                bi = 000004, bj = 000005
(PID.TID 0000.0001) //       SOUTH: Tile = 000048, Process = 000000, Comm = put
(PID.TID 0000.0001) //                bi = 000003, bj = 000004
(PID.TID 0000.0001) //       NORTH: Tile = 000078, Process = 000000, Comm = put
(PID.TID 0000.0001) //                bi = 000003, bj = 000006
(PID.TID 0000.0001) // Tile number: 000064 (process no. = 000000)
(PID.TID 0000.0001) //        WEST: Tile = 000063, Process = 000000, Comm = put
(PID.TID 0000.0001) //                bi = 000003, bj = 000005
(PID.TID 0000.0001) //        EAST: Tile = 000065, Process = 000000, Comm = put
(PID.TID 0000.0001) //                bi = 000005, bj = 000005
(PID.TID 0000.0001) //       SOUTH: Tile = 000049, Process = 000000, Comm = put
(PID.TID 0000.0001) //                bi = 000004, bj = 000004
(PID.TID 0000.0001) //       NORTH: Tile = 000079, Process = 000000, Comm = put
(PID.TID 0000.0001) //                bi = 000004, bj = 000006
(PID.TID 0000.0001) // Tile number: 000065 (process no. = 000000)
(PID.TID 0000.0001) //        WEST: Tile = 000064, Process = 000000, Comm = put
(PID.TID 0000.0001) //                bi = 000004, bj = 000005
(PID.TID 0000.0001) //        EAST: Tile = 000066, Process = 000000, Comm = put
(PID.TID 0000.0001) //                bi = 000006, bj = 000005
(PID.TID 0000.0001) //       SOUTH: Tile = 000050, Process = 000000, Comm = put
(PID.TID 0000.0001) //                bi = 000005, bj = 000004
(PID.TID 0000.0001) //       NORTH: Tile = 000080, Process = 000000, Comm = put
(PID.TID 0000.0001) //                bi = 000005, bj = 000006
(PID.TID 0000.0001) // Tile number: 000066 (process no. = 000000)
(PID.TID 0000.0001) //        WEST: Tile = 000065, Process = 000000, Comm = put
(PID.TID 0000.0001) //                bi = 000005, bj = 000005
(PID.TID 0000.0001) //        EAST: Tile = 000067, Process = 000000, Comm = put
(PID.TID 0000.0001) //                bi = 000007, bj = 000005
(PID.TID 0000.0001) //       SOUTH: Tile = 000051, Process = 000000, Comm = put
(PID.TID 0000.0001) //                bi = 000006, bj = 000004
(PID.TID 0000.0001) //       NORTH: Tile = 000081, Process = 000000, Comm = put
(PID.TID 0000.0001) //                bi = 000006, bj = 000006
(PID.TID 0000.0001) // Tile number: 000067 (process no. = 000000)
(PID.TID 0000.0001) //        WEST: Tile = 000066, Process = 000000, Comm = put
(PID.TID 0000.0001) //                bi = 000006, bj = 000005
(PID.TID 0000.0001) //        EAST: Tile = 000068, Process = 000000, Comm = put
(PID.TID 0000.0001) //                bi = 000008, bj = 000005
(PID.TID 0000.0001) //       SOUTH: Tile = 000052, Process = 000000, Comm = put
(PID.TID 0000.0001) //                bi = 000007, bj = 000004
(PID.TID 0000.0001) //       NORTH: Tile = 000082, Process = 000000, Comm = put
(PID.TID 0000.0001) //                bi = 000007, bj = 000006
(PID.TID 0000.0001) // Tile number: 000068 (process no. = 000000)
(PID.TID 0000.0001) //        WEST: Tile = 000067, Process = 000000, Comm = put
(PID.TID 0000.0001) //                bi = 000007, bj = 000005
(PID.TID 0000.0001) //        EAST: Tile = 000069, Process = 000000, Comm = put
(PID.TID 0000.0001) //                bi = 000009, bj = 000005
(PID.TID 0000.0001) //       SOUTH: Tile = 000053, Process = 000000, Comm = put
(PID.TID 0000.0001) //                bi = 000008, bj = 000004
(PID.TID 0000.0001) //       NORTH: Tile = 000083, Process = 000000, Comm = put
(PID.TID 0000.0001) //                bi = 000008, bj = 000006
(PID.TID 0000.0001) // Tile number: 000069 (process no. = 000000)
(PID.TID 0000.0001) //        WEST: Tile = 000068, Process = 000000, Comm = put
(PID.TID 0000.0001) //                bi = 000008, bj = 000005
(PID.TID 0000.0001) //        EAST: Tile = 000070, Process = 000000, Comm = put
(PID.TID 0000.0001) //                bi = 000010, bj = 000005
(PID.TID 0000.0001) //       SOUTH: Tile = 000054, Process = 000000, Comm = put
(PID.TID 0000.0001) //                bi = 000009, bj = 000004
(PID.TID 0000.0001) //       NORTH: Tile = 000084, Process = 000000, Comm = put
(PID.TID 0000.0001) //                bi = 000009, bj = 000006
(PID.TID 0000.0001) // Tile number: 000070 (process no. = 000000)
(PID.TID 0000.0001) //        WEST: Tile = 000069, Process = 000000, Comm = put
(PID.TID 0000.0001) //                bi = 000009, bj = 000005
(PID.TID 0000.0001) //        EAST: Tile = 000071, Process = 000000, Comm = put
(PID.TID 0000.0001) //                bi = 000011, bj = 000005
(PID.TID 0000.0001) //       SOUTH: Tile = 000055, Process = 000000, Comm = put
(PID.TID 0000.0001) //                bi = 000010, bj = 000004
(PID.TID 0000.0001) //       NORTH: Tile = 000085, Process = 000000, Comm = put
(PID.TID 0000.0001) //                bi = 000010, bj = 000006
(PID.TID 0000.0001) // Tile number: 000071 (process no. = 000000)
(PID.TID 0000.0001) //        WEST: Tile = 000070, Process = 000000, Comm = put
(PID.TID 0000.0001) //                bi = 000010, bj = 000005
(PID.TID 0000.0001) //        EAST: Tile = 000072, Process = 000000, Comm = put
(PID.TID 0000.0001) //                bi = 000012, bj = 000005
(PID.TID 0000.0001) //       SOUTH: Tile = 000056, Process = 000000, Comm = put
(PID.TID 0000.0001) //                bi = 000011, bj = 000004
(PID.TID 0000.0001) //       NORTH: Tile = 000086, Process = 000000, Comm = put
(PID.TID 0000.0001) //                bi = 000011, bj = 000006
(PID.TID 0000.0001) // Tile number: 000072 (process no. = 000000)
(PID.TID 0000.0001) //        WEST: Tile = 000071, Process = 000000, Comm = put
(PID.TID 0000.0001) //                bi = 000011, bj = 000005
(PID.TID 0000.0001) //        EAST: Tile = 000073, Process = 000000, Comm = put
(PID.TID 0000.0001) //                bi = 000013, bj = 000005
(PID.TID 0000.0001) //       SOUTH: Tile = 000057, Process = 000000, Comm = put
(PID.TID 0000.0001) //                bi = 000012, bj = 000004
(PID.TID 0000.0001) //       NORTH: Tile = 000087, Process = 000000, Comm = put
(PID.TID 0000.0001) //                bi = 000012, bj = 000006
(PID.TID 0000.0001) // Tile number: 000073 (process no. = 000000)
(PID.TID 0000.0001) //        WEST: Tile = 000072, Process = 000000, Comm = put
(PID.TID 0000.0001) //                bi = 000012, bj = 000005
(PID.TID 0000.0001) //        EAST: Tile = 000074, Process = 000000, Comm = put
(PID.TID 0000.0001) //                bi = 000014, bj = 000005
(PID.TID 0000.0001) //       SOUTH: Tile = 000058, Process = 000000, Comm = put
(PID.TID 0000.0001) //                bi = 000013, bj = 000004
(PID.TID 0000.0001) //       NORTH: Tile = 000088, Process = 000000, Comm = put
(PID.TID 0000.0001) //                bi = 000013, bj = 000006
(PID.TID 0000.0001) // Tile number: 000074 (process no. = 000000)
(PID.TID 0000.0001) //        WEST: Tile = 000073, Process = 000000, Comm = put
(PID.TID 0000.0001) //                bi = 000013, bj = 000005
(PID.TID 0000.0001) //        EAST: Tile = 000075, Process = 000000, Comm = put
(PID.TID 0000.0001) //                bi = 000015, bj = 000005
(PID.TID 0000.0001) //       SOUTH: Tile = 000059, Process = 000000, Comm = put
(PID.TID 0000.0001) //                bi = 000014, bj = 000004
(PID.TID 0000.0001) //       NORTH: Tile = 000089, Process = 000000, Comm = put
(PID.TID 0000.0001) //                bi = 000014, bj = 000006
(PID.TID 0000.0001) // Tile number: 000075 (process no. = 000000)
(PID.TID 0000.0001) //        WEST: Tile = 000074, Process = 000000, Comm = put
(PID.TID 0000.0001) //                bi = 000014, bj = 000005
(PID.TID 0000.0001) //        EAST: Tile = 000061, Process = 000000, Comm = put
(PID.TID 0000.0001) //                bi = 000001, bj = 000005
(PID.TID 0000.0001) //       SOUTH: Tile = 000060, Process = 000000, Comm = put
(PID.TID 0000.0001) //                bi = 000015, bj = 000004
(PID.TID 0000.0001) //       NORTH: Tile = 000090, Process = 000000, Comm = put
(PID.TID 0000.0001) //                bi = 000015, bj = 000006
(PID.TID 0000.0001) // Tile number: 000076 (process no. = 000000)
(PID.TID 0000.0001) //        WEST: Tile = 000090, Process = 000000, Comm = put
(PID.TID 0000.0001) //                bi = 000015, bj = 000006
(PID.TID 0000.0001) //        EAST: Tile = 000077, Process = 000000, Comm = put
(PID.TID 0000.0001) //                bi = 000002, bj = 000006
(PID.TID 0000.0001) //       SOUTH: Tile = 000061, Process = 000000, Comm = put
(PID.TID 0000.0001) //                bi = 000001, bj = 000005
(PID.TID 0000.0001) //       NORTH: Tile = 000091, Process = 000000, Comm = put
(PID.TID 0000.0001) //                bi = 000001, bj = 000007
(PID.TID 0000.0001) // Tile number: 000077 (process no. = 000000)
(PID.TID 0000.0001) //        WEST: Tile = 000076, Process = 000000, Comm = put
(PID.TID 0000.0001) //                bi = 000001, bj = 000006
(PID.TID 0000.0001) //        EAST: Tile = 000078, Process = 000000, Comm = put
(PID.TID 0000.0001) //                bi = 000003, bj = 000006
(PID.TID 0000.0001) //       SOUTH: Tile = 000062, Process = 000000, Comm = put
(PID.TID 0000.0001) //                bi = 000002, bj = 000005
(PID.TID 0000.0001) //       NORTH: Tile = 000092, Process = 000000, Comm = put
(PID.TID 0000.0001) //                bi = 000002, bj = 000007
(PID.TID 0000.0001) // Tile number: 000078 (process no. = 000000)
(PID.TID 0000.0001) //        WEST: Tile = 000077, Process = 000000, Comm = put
(PID.TID 0000.0001) //                bi = 000002, bj = 000006
(PID.TID 0000.0001) //        EAST: Tile = 000079, Process = 000000, Comm = put
(PID.TID 0000.0001) //                bi = 000004, bj = 000006
(PID.TID 0000.0001) //       SOUTH: Tile = 000063, Process = 000000, Comm = put
(PID.TID 0000.0001) //                bi = 000003, bj = 000005
(PID.TID 0000.0001) //       NORTH: Tile = 000093, Process = 000000, Comm = put
(PID.TID 0000.0001) //                bi = 000003, bj = 000007
(PID.TID 0000.0001) // Tile number: 000079 (process no. = 000000)
(PID.TID 0000.0001) //        WEST: Tile = 000078, Process = 000000, Comm = put
(PID.TID 0000.0001) //                bi = 000003, bj = 000006
(PID.TID 0000.0001) //        EAST: Tile = 000080, Process = 000000, Comm = put
(PID.TID 0000.0001) //                bi = 000005, bj = 000006
(PID.TID 0000.0001) //       SOUTH: Tile = 000064, Process = 000000, Comm = put
(PID.TID 0000.0001) //                bi = 000004, bj = 000005
(PID.TID 0000.0001) //       NORTH: Tile = 000094, Process = 000000, Comm = put
(PID.TID 0000.0001) //                bi = 000004, bj = 000007
(PID.TID 0000.0001) // Tile number: 000080 (process no. = 000000)
(PID.TID 0000.0001) //        WEST: Tile = 000079, Process = 000000, Comm = put
(PID.TID 0000.0001) //                bi = 000004, bj = 000006
(PID.TID 0000.0001) //        EAST: Tile = 000081, Process = 000000, Comm = put
(PID.TID 0000.0001) //                bi = 000006, bj = 000006
(PID.TID 0000.0001) //       SOUTH: Tile = 000065, Process = 000000, Comm = put
(PID.TID 0000.0001) //                bi = 000005, bj = 000005
(PID.TID 0000.0001) //       NORTH: Tile = 000095, Process = 000000, Comm = put
(PID.TID 0000.0001) //                bi = 000005, bj = 000007
(PID.TID 0000.0001) // Tile number: 000081 (process no. = 000000)
(PID.TID 0000.0001) //        WEST: Tile = 000080, Process = 000000, Comm = put
(PID.TID 0000.0001) //                bi = 000005, bj = 000006
(PID.TID 0000.0001) //        EAST: Tile = 000082, Process = 000000, Comm = put
(PID.TID 0000.0001) //                bi = 000007, bj = 000006
(PID.TID 0000.0001) //       SOUTH: Tile = 000066, Process = 000000, Comm = put
(PID.TID 0000.0001) //                bi = 000006, bj = 000005
(PID.TID 0000.0001) //       NORTH: Tile = 000096, Process = 000000, Comm = put
(PID.TID 0000.0001) //                bi = 000006, bj = 000007
(PID.TID 0000.0001) // Tile number: 000082 (process no. = 000000)
(PID.TID 0000.0001) //        WEST: Tile = 000081, Process = 000000, Comm = put
(PID.TID 0000.0001) //                bi = 000006, bj = 000006
(PID.TID 0000.0001) //        EAST: Tile = 000083, Process = 000000, Comm = put
(PID.TID 0000.0001) //                bi = 000008, bj = 000006
(PID.TID 0000.0001) //       SOUTH: Tile = 000067, Process = 000000, Comm = put
(PID.TID 0000.0001) //                bi = 000007, bj = 000005
(PID.TID 0000.0001) //       NORTH: Tile = 000097, Process = 000000, Comm = put
(PID.TID 0000.0001) //                bi = 000007, bj = 000007
(PID.TID 0000.0001) // Tile number: 000083 (process no. = 000000)
(PID.TID 0000.0001) //        WEST: Tile = 000082, Process = 000000, Comm = put
(PID.TID 0000.0001) //                bi = 000007, bj = 000006
(PID.TID 0000.0001) //        EAST: Tile = 000084, Process = 000000, Comm = put
(PID.TID 0000.0001) //                bi = 000009, bj = 000006
(PID.TID 0000.0001) //       SOUTH: Tile = 000068, Process = 000000, Comm = put
(PID.TID 0000.0001) //                bi = 000008, bj = 000005
(PID.TID 0000.0001) //       NORTH: Tile = 000098, Process = 000000, Comm = put
(PID.TID 0000.0001) //                bi = 000008, bj = 000007
(PID.TID 0000.0001) // Tile number: 000084 (process no. = 000000)
(PID.TID 0000.0001) //        WEST: Tile = 000083, Process = 000000, Comm = put
(PID.TID 0000.0001) //                bi = 000008, bj = 000006
(PID.TID 0000.0001) //        EAST: Tile = 000085, Process = 000000, Comm = put
(PID.TID 0000.0001) //                bi = 000010, bj = 000006
(PID.TID 0000.0001) //       SOUTH: Tile = 000069, Process = 000000, Comm = put
(PID.TID 0000.0001) //                bi = 000009, bj = 000005
(PID.TID 0000.0001) //       NORTH: Tile = 000099, Process = 000000, Comm = put
(PID.TID 0000.0001) //                bi = 000009, bj = 000007
(PID.TID 0000.0001) // Tile number: 000085 (process no. = 000000)
(PID.TID 0000.0001) //        WEST: Tile = 000084, Process = 000000, Comm = put
(PID.TID 0000.0001) //                bi = 000009, bj = 000006
(PID.TID 0000.0001) //        EAST: Tile = 000086, Process = 000000, Comm = put
(PID.TID 0000.0001) //                bi = 000011, bj = 000006
(PID.TID 0000.0001) //       SOUTH: Tile = 000070, Process = 000000, Comm = put
(PID.TID 0000.0001) //                bi = 000010, bj = 000005
(PID.TID 0000.0001) //       NORTH: Tile = 000100, Process = 000000, Comm = put
(PID.TID 0000.0001) //                bi = 000010, bj = 000007
(PID.TID 0000.0001) // Tile number: 000086 (process no. = 000000)
(PID.TID 0000.0001) //        WEST: Tile = 000085, Process = 000000, Comm = put
(PID.TID 0000.0001) //                bi = 000010, bj = 000006
(PID.TID 0000.0001) //        EAST: Tile = 000087, Process = 000000, Comm = put
(PID.TID 0000.0001) //                bi = 000012, bj = 000006
(PID.TID 0000.0001) //       SOUTH: Tile = 000071, Process = 000000, Comm = put
(PID.TID 0000.0001) //                bi = 000011, bj = 000005
(PID.TID 0000.0001) //       NORTH: Tile = 000101, Process = 000000, Comm = put
(PID.TID 0000.0001) //                bi = 000011, bj = 000007
(PID.TID 0000.0001) // Tile number: 000087 (process no. = 000000)
(PID.TID 0000.0001) //        WEST: Tile = 000086, Process = 000000, Comm = put
(PID.TID 0000.0001) //                bi = 000011, bj = 000006
(PID.TID 0000.0001) //        EAST: Tile = 000088, Process = 000000, Comm = put
(PID.TID 0000.0001) //                bi = 000013, bj = 000006
(PID.TID 0000.0001) //       SOUTH: Tile = 000072, Process = 000000, Comm = put
(PID.TID 0000.0001) //                bi = 000012, bj = 000005
(PID.TID 0000.0001) //       NORTH: Tile = 000102, Process = 000000, Comm = put
(PID.TID 0000.0001) //                bi = 000012, bj = 000007
(PID.TID 0000.0001) // Tile number: 000088 (process no. = 000000)
(PID.TID 0000.0001) //        WEST: Tile = 000087, Process = 000000, Comm = put
(PID.TID 0000.0001) //                bi = 000012, bj = 000006
(PID.TID 0000.0001) //        EAST: Tile = 000089, Process = 000000, Comm = put
(PID.TID 0000.0001) //                bi = 000014, bj = 000006
(PID.TID 0000.0001) //       SOUTH: Tile = 000073, Process = 000000, Comm = put
(PID.TID 0000.0001) //                bi = 000013, bj = 000005
(PID.TID 0000.0001) //       NORTH: Tile = 000103, Process = 000000, Comm = put
(PID.TID 0000.0001) //                bi = 000013, bj = 000007
(PID.TID 0000.0001) // Tile number: 000089 (process no. = 000000)
(PID.TID 0000.0001) //        WEST: Tile = 000088, Process = 000000, Comm = put
(PID.TID 0000.0001) //                bi = 000013, bj = 000006
(PID.TID 0000.0001) //        EAST: Tile = 000090, Process = 000000, Comm = put
(PID.TID 0000.0001) //                bi = 000015, bj = 000006
(PID.TID 0000.0001) //       SOUTH: Tile = 000074, Process = 000000, Comm = put
(PID.TID 0000.0001) //                bi = 000014, bj = 000005
(PID.TID 0000.0001) //       NORTH: Tile = 000104, Process = 000000, Comm = put
(PID.TID 0000.0001) //                bi = 000014, bj = 000007
(PID.TID 0000.0001) // Tile number: 000090 (process no. = 000000)
(PID.TID 0000.0001) //        WEST: Tile = 000089, Process = 000000, Comm = put
(PID.TID 0000.0001) //                bi = 000014, bj = 000006
(PID.TID 0000.0001) //        EAST: Tile = 000076, Process = 000000, Comm = put
(PID.TID 0000.0001) //                bi = 000001, bj = 000006
(PID.TID 0000.0001) //       SOUTH: Tile = 000075, Process = 000000, Comm = put
(PID.TID 0000.0001) //                bi = 000015, bj = 000005
(PID.TID 0000.0001) //       NORTH: Tile = 000105, Process = 000000, Comm = put
(PID.TID 0000.0001) //                bi = 000015, bj = 000007
(PID.TID 0000.0001) // Tile number: 000091 (process no. = 000000)
(PID.TID 0000.0001) //        WEST: Tile = 000105, Process = 000000, Comm = put
(PID.TID 0000.0001) //                bi = 000015, bj = 000007
(PID.TID 0000.0001) //        EAST: Tile = 000092, Process = 000000, Comm = put
(PID.TID 0000.0001) //                bi = 000002, bj = 000007
(PID.TID 0000.0001) //       SOUTH: Tile = 000076, Process = 000000, Comm = put
(PID.TID 0000.0001) //                bi = 000001, bj = 000006
(PID.TID 0000.0001) //       NORTH: Tile = 000106, Process = 000000, Comm = put
(PID.TID 0000.0001) //                bi = 000001, bj = 000008
(PID.TID 0000.0001) // Tile number: 000092 (process no. = 000000)
(PID.TID 0000.0001) //        WEST: Tile = 000091, Process = 000000, Comm = put
(PID.TID 0000.0001) //                bi = 000001, bj = 000007
(PID.TID 0000.0001) //        EAST: Tile = 000093, Process = 000000, Comm = put
(PID.TID 0000.0001) //                bi = 000003, bj = 000007
(PID.TID 0000.0001) //       SOUTH: Tile = 000077, Process = 000000, Comm = put
(PID.TID 0000.0001) //                bi = 000002, bj = 000006
(PID.TID 0000.0001) //       NORTH: Tile = 000107, Process = 000000, Comm = put
(PID.TID 0000.0001) //                bi = 000002, bj = 000008
(PID.TID 0000.0001) // Tile number: 000093 (process no. = 000000)
(PID.TID 0000.0001) //        WEST: Tile = 000092, Process = 000000, Comm = put
(PID.TID 0000.0001) //                bi = 000002, bj = 000007
(PID.TID 0000.0001) //        EAST: Tile = 000094, Process = 000000, Comm = put
(PID.TID 0000.0001) //                bi = 000004, bj = 000007
(PID.TID 0000.0001) //       SOUTH: Tile = 000078, Process = 000000, Comm = put
(PID.TID 0000.0001) //                bi = 000003, bj = 000006
(PID.TID 0000.0001) //       NORTH: Tile = 000108, Process = 000000, Comm = put
(PID.TID 0000.0001) //                bi = 000003, bj = 000008
(PID.TID 0000.0001) // Tile number: 000094 (process no. = 000000)
(PID.TID 0000.0001) //        WEST: Tile = 000093, Process = 000000, Comm = put
(PID.TID 0000.0001) //                bi = 000003, bj = 000007
(PID.TID 0000.0001) //        EAST: Tile = 000095, Process = 000000, Comm = put
(PID.TID 0000.0001) //                bi = 000005, bj = 000007
(PID.TID 0000.0001) //       SOUTH: Tile = 000079, Process = 000000, Comm = put
(PID.TID 0000.0001) //                bi = 000004, bj = 000006
(PID.TID 0000.0001) //       NORTH: Tile = 000109, Process = 000000, Comm = put
(PID.TID 0000.0001) //                bi = 000004, bj = 000008
(PID.TID 0000.0001) // Tile number: 000095 (process no. = 000000)
(PID.TID 0000.0001) //        WEST: Tile = 000094, Process = 000000, Comm = put
(PID.TID 0000.0001) //                bi = 000004, bj = 000007
(PID.TID 0000.0001) //        EAST: Tile = 000096, Process = 000000, Comm = put
(PID.TID 0000.0001) //                bi = 000006, bj = 000007
(PID.TID 0000.0001) //       SOUTH: Tile = 000080, Process = 000000, Comm = put
(PID.TID 0000.0001) //                bi = 000005, bj = 000006
(PID.TID 0000.0001) //       NORTH: Tile = 000110, Process = 000000, Comm = put
(PID.TID 0000.0001) //                bi = 000005, bj = 000008
(PID.TID 0000.0001) // Tile number: 000096 (process no. = 000000)
(PID.TID 0000.0001) //        WEST: Tile = 000095, Process = 000000, Comm = put
(PID.TID 0000.0001) //                bi = 000005, bj = 000007
(PID.TID 0000.0001) //        EAST: Tile = 000097, Process = 000000, Comm = put
(PID.TID 0000.0001) //                bi = 000007, bj = 000007
(PID.TID 0000.0001) //       SOUTH: Tile = 000081, Process = 000000, Comm = put
(PID.TID 0000.0001) //                bi = 000006, bj = 000006
(PID.TID 0000.0001) //       NORTH: Tile = 000111, Process = 000000, Comm = put
(PID.TID 0000.0001) //                bi = 000006, bj = 000008
(PID.TID 0000.0001) // Tile number: 000097 (process no. = 000000)
(PID.TID 0000.0001) //        WEST: Tile = 000096, Process = 000000, Comm = put
(PID.TID 0000.0001) //                bi = 000006, bj = 000007
(PID.TID 0000.0001) //        EAST: Tile = 000098, Process = 000000, Comm = put
(PID.TID 0000.0001) //                bi = 000008, bj = 000007
(PID.TID 0000.0001) //       SOUTH: Tile = 000082, Process = 000000, Comm = put
(PID.TID 0000.0001) //                bi = 000007, bj = 000006
(PID.TID 0000.0001) //       NORTH: Tile = 000112, Process = 000000, Comm = put
(PID.TID 0000.0001) //                bi = 000007, bj = 000008
(PID.TID 0000.0001) // Tile number: 000098 (process no. = 000000)
(PID.TID 0000.0001) //        WEST: Tile = 000097, Process = 000000, Comm = put
(PID.TID 0000.0001) //                bi = 000007, bj = 000007
(PID.TID 0000.0001) //        EAST: Tile = 000099, Process = 000000, Comm = put
(PID.TID 0000.0001) //                bi = 000009, bj = 000007
(PID.TID 0000.0001) //       SOUTH: Tile = 000083, Process = 000000, Comm = put
(PID.TID 0000.0001) //                bi = 000008, bj = 000006
(PID.TID 0000.0001) //       NORTH: Tile = 000113, Process = 000000, Comm = put
(PID.TID 0000.0001) //                bi = 000008, bj = 000008
(PID.TID 0000.0001) // Tile number: 000099 (process no. = 000000)
(PID.TID 0000.0001) //        WEST: Tile = 000098, Process = 000000, Comm = put
(PID.TID 0000.0001) //                bi = 000008, bj = 000007
(PID.TID 0000.0001) //        EAST: Tile = 000100, Process = 000000, Comm = put
(PID.TID 0000.0001) //                bi = 000010, bj = 000007
(PID.TID 0000.0001) //       SOUTH: Tile = 000084, Process = 000000, Comm = put
(PID.TID 0000.0001) //                bi = 000009, bj = 000006
(PID.TID 0000.0001) //       NORTH: Tile = 000114, Process = 000000, Comm = put
(PID.TID 0000.0001) //                bi = 000009, bj = 000008
(PID.TID 0000.0001) // Tile number: 000100 (process no. = 000000)
(PID.TID 0000.0001) //        WEST: Tile = 000099, Process = 000000, Comm = put
(PID.TID 0000.0001) //                bi = 000009, bj = 000007
(PID.TID 0000.0001) //        EAST: Tile = 000101, Process = 000000, Comm = put
(PID.TID 0000.0001) //                bi = 000011, bj = 000007
(PID.TID 0000.0001) //       SOUTH: Tile = 000085, Process = 000000, Comm = put
(PID.TID 0000.0001) //                bi = 000010, bj = 000006
(PID.TID 0000.0001) //       NORTH: Tile = 000115, Process = 000000, Comm = put
(PID.TID 0000.0001) //                bi = 000010, bj = 000008
(PID.TID 0000.0001) // Tile number: 000101 (process no. = 000000)
(PID.TID 0000.0001) //        WEST: Tile = 000100, Process = 000000, Comm = put
(PID.TID 0000.0001) //                bi = 000010, bj = 000007
(PID.TID 0000.0001) //        EAST: Tile = 000102, Process = 000000, Comm = put
(PID.TID 0000.0001) //                bi = 000012, bj = 000007
(PID.TID 0000.0001) //       SOUTH: Tile = 000086, Process = 000000, Comm = put
(PID.TID 0000.0001) //                bi = 000011, bj = 000006
(PID.TID 0000.0001) //       NORTH: Tile = 000116, Process = 000000, Comm = put
(PID.TID 0000.0001) //                bi = 000011, bj = 000008
(PID.TID 0000.0001) // Tile number: 000102 (process no. = 000000)
(PID.TID 0000.0001) //        WEST: Tile = 000101, Process = 000000, Comm = put
(PID.TID 0000.0001) //                bi = 000011, bj = 000007
(PID.TID 0000.0001) //        EAST: Tile = 000103, Process = 000000, Comm = put
(PID.TID 0000.0001) //                bi = 000013, bj = 000007
(PID.TID 0000.0001) //       SOUTH: Tile = 000087, Process = 000000, Comm = put
(PID.TID 0000.0001) //                bi = 000012, bj = 000006
(PID.TID 0000.0001) //       NORTH: Tile = 000117, Process = 000000, Comm = put
(PID.TID 0000.0001) //                bi = 000012, bj = 000008
(PID.TID 0000.0001) // Tile number: 000103 (process no. = 000000)
(PID.TID 0000.0001) //        WEST: Tile = 000102, Process = 000000, Comm = put
(PID.TID 0000.0001) //                bi = 000012, bj = 000007
(PID.TID 0000.0001) //        EAST: Tile = 000104, Process = 000000, Comm = put
(PID.TID 0000.0001) //                bi = 000014, bj = 000007
(PID.TID 0000.0001) //       SOUTH: Tile = 000088, Process = 000000, Comm = put
(PID.TID 0000.0001) //                bi = 000013, bj = 000006
(PID.TID 0000.0001) //       NORTH: Tile = 000118, Process = 000000, Comm = put
(PID.TID 0000.0001) //                bi = 000013, bj = 000008
(PID.TID 0000.0001) // Tile number: 000104 (process no. = 000000)
(PID.TID 0000.0001) //        WEST: Tile = 000103, Process = 000000, Comm = put
(PID.TID 0000.0001) //                bi = 000013, bj = 000007
(PID.TID 0000.0001) //        EAST: Tile = 000105, Process = 000000, Comm = put
(PID.TID 0000.0001) //                bi = 000015, bj = 000007
(PID.TID 0000.0001) //       SOUTH: Tile = 000089, Process = 000000, Comm = put
(PID.TID 0000.0001) //                bi = 000014, bj = 000006
(PID.TID 0000.0001) //       NORTH: Tile = 000119, Process = 000000, Comm = put
(PID.TID 0000.0001) //                bi = 000014, bj = 000008
(PID.TID 0000.0001) // Tile number: 000105 (process no. = 000000)
(PID.TID 0000.0001) //        WEST: Tile = 000104, Process = 000000, Comm = put
(PID.TID 0000.0001) //                bi = 000014, bj = 000007
(PID.TID 0000.0001) //        EAST: Tile = 000091, Process = 000000, Comm = put
(PID.TID 0000.0001) //                bi = 000001, bj = 000007
(PID.TID 0000.0001) //       SOUTH: Tile = 000090, Process = 000000, Comm = put
(PID.TID 0000.0001) //                bi = 000015, bj = 000006
(PID.TID 0000.0001) //       NORTH: Tile = 000120, Process = 000000, Comm = put
(PID.TID 0000.0001) //                bi = 000015, bj = 000008
(PID.TID 0000.0001) // Tile number: 000106 (process no. = 000000)
(PID.TID 0000.0001) //        WEST: Tile = 000120, Process = 000000, Comm = put
(PID.TID 0000.0001) //                bi = 000015, bj = 000008
(PID.TID 0000.0001) //        EAST: Tile = 000107, Process = 000000, Comm = put
(PID.TID 0000.0001) //                bi = 000002, bj = 000008
(PID.TID 0000.0001) //       SOUTH: Tile = 000091, Process = 000000, Comm = put
(PID.TID 0000.0001) //                bi = 000001, bj = 000007
(PID.TID 0000.0001) //       NORTH: Tile = 000121, Process = 000000, Comm = put
(PID.TID 0000.0001) //                bi = 000001, bj = 000009
(PID.TID 0000.0001) // Tile number: 000107 (process no. = 000000)
(PID.TID 0000.0001) //        WEST: Tile = 000106, Process = 000000, Comm = put
(PID.TID 0000.0001) //                bi = 000001, bj = 000008
(PID.TID 0000.0001) //        EAST: Tile = 000108, Process = 000000, Comm = put
(PID.TID 0000.0001) //                bi = 000003, bj = 000008
(PID.TID 0000.0001) //       SOUTH: Tile = 000092, Process = 000000, Comm = put
(PID.TID 0000.0001) //                bi = 000002, bj = 000007
(PID.TID 0000.0001) //       NORTH: Tile = 000122, Process = 000000, Comm = put
(PID.TID 0000.0001) //                bi = 000002, bj = 000009
(PID.TID 0000.0001) // Tile number: 000108 (process no. = 000000)
(PID.TID 0000.0001) //        WEST: Tile = 000107, Process = 000000, Comm = put
(PID.TID 0000.0001) //                bi = 000002, bj = 000008
(PID.TID 0000.0001) //        EAST: Tile = 000109, Process = 000000, Comm = put
(PID.TID 0000.0001) //                bi = 000004, bj = 000008
(PID.TID 0000.0001) //       SOUTH: Tile = 000093, Process = 000000, Comm = put
(PID.TID 0000.0001) //                bi = 000003, bj = 000007
(PID.TID 0000.0001) //       NORTH: Tile = 000123, Process = 000000, Comm = put
(PID.TID 0000.0001) //                bi = 000003, bj = 000009
(PID.TID 0000.0001) // Tile number: 000109 (process no. = 000000)
(PID.TID 0000.0001) //        WEST: Tile = 000108, Process = 000000, Comm = put
(PID.TID 0000.0001) //                bi = 000003, bj = 000008
(PID.TID 0000.0001) //        EAST: Tile = 000110, Process = 000000, Comm = put
(PID.TID 0000.0001) //                bi = 000005, bj = 000008
(PID.TID 0000.0001) //       SOUTH: Tile = 000094, Process = 000000, Comm = put
(PID.TID 0000.0001) //                bi = 000004, bj = 000007
(PID.TID 0000.0001) //       NORTH: Tile = 000124, Process = 000000, Comm = put
(PID.TID 0000.0001) //                bi = 000004, bj = 000009
(PID.TID 0000.0001) // Tile number: 000110 (process no. = 000000)
(PID.TID 0000.0001) //        WEST: Tile = 000109, Process = 000000, Comm = put
(PID.TID 0000.0001) //                bi = 000004, bj = 000008
(PID.TID 0000.0001) //        EAST: Tile = 000111, Process = 000000, Comm = put
(PID.TID 0000.0001) //                bi = 000006, bj = 000008
(PID.TID 0000.0001) //       SOUTH: Tile = 000095, Process = 000000, Comm = put
(PID.TID 0000.0001) //                bi = 000005, bj = 000007
(PID.TID 0000.0001) //       NORTH: Tile = 000125, Process = 000000, Comm = put
(PID.TID 0000.0001) //                bi = 000005, bj = 000009
(PID.TID 0000.0001) // Tile number: 000111 (process no. = 000000)
(PID.TID 0000.0001) //        WEST: Tile = 000110, Process = 000000, Comm = put
(PID.TID 0000.0001) //                bi = 000005, bj = 000008
(PID.TID 0000.0001) //        EAST: Tile = 000112, Process = 000000, Comm = put
(PID.TID 0000.0001) //                bi = 000007, bj = 000008
(PID.TID 0000.0001) //       SOUTH: Tile = 000096, Process = 000000, Comm = put
(PID.TID 0000.0001) //                bi = 000006, bj = 000007
(PID.TID 0000.0001) //       NORTH: Tile = 000126, Process = 000000, Comm = put
(PID.TID 0000.0001) //                bi = 000006, bj = 000009
(PID.TID 0000.0001) // Tile number: 000112 (process no. = 000000)
(PID.TID 0000.0001) //        WEST: Tile = 000111, Process = 000000, Comm = put
(PID.TID 0000.0001) //                bi = 000006, bj = 000008
(PID.TID 0000.0001) //        EAST: Tile = 000113, Process = 000000, Comm = put
(PID.TID 0000.0001) //                bi = 000008, bj = 000008
(PID.TID 0000.0001) //       SOUTH: Tile = 000097, Process = 000000, Comm = put
(PID.TID 0000.0001) //                bi = 000007, bj = 000007
(PID.TID 0000.0001) //       NORTH: Tile = 000127, Process = 000000, Comm = put
(PID.TID 0000.0001) //                bi = 000007, bj = 000009
(PID.TID 0000.0001) // Tile number: 000113 (process no. = 000000)
(PID.TID 0000.0001) //        WEST: Tile = 000112, Process = 000000, Comm = put
(PID.TID 0000.0001) //                bi = 000007, bj = 000008
(PID.TID 0000.0001) //        EAST: Tile = 000114, Process = 000000, Comm = put
(PID.TID 0000.0001) //                bi = 000009, bj = 000008
(PID.TID 0000.0001) //       SOUTH: Tile = 000098, Process = 000000, Comm = put
(PID.TID 0000.0001) //                bi = 000008, bj = 000007
(PID.TID 0000.0001) //       NORTH: Tile = 000128, Process = 000000, Comm = put
(PID.TID 0000.0001) //                bi = 000008, bj = 000009
(PID.TID 0000.0001) // Tile number: 000114 (process no. = 000000)
(PID.TID 0000.0001) //        WEST: Tile = 000113, Process = 000000, Comm = put
(PID.TID 0000.0001) //                bi = 000008, bj = 000008
(PID.TID 0000.0001) //        EAST: Tile = 000115, Process = 000000, Comm = put
(PID.TID 0000.0001) //                bi = 000010, bj = 000008
(PID.TID 0000.0001) //       SOUTH: Tile = 000099, Process = 000000, Comm = put
(PID.TID 0000.0001) //                bi = 000009, bj = 000007
(PID.TID 0000.0001) //       NORTH: Tile = 000129, Process = 000000, Comm = put
(PID.TID 0000.0001) //                bi = 000009, bj = 000009
(PID.TID 0000.0001) // Tile number: 000115 (process no. = 000000)
(PID.TID 0000.0001) //        WEST: Tile = 000114, Process = 000000, Comm = put
(PID.TID 0000.0001) //                bi = 000009, bj = 000008
(PID.TID 0000.0001) //        EAST: Tile = 000116, Process = 000000, Comm = put
(PID.TID 0000.0001) //                bi = 000011, bj = 000008
(PID.TID 0000.0001) //       SOUTH: Tile = 000100, Process = 000000, Comm = put
(PID.TID 0000.0001) //                bi = 000010, bj = 000007
(PID.TID 0000.0001) //       NORTH: Tile = 000130, Process = 000000, Comm = put
(PID.TID 0000.0001) //                bi = 000010, bj = 000009
(PID.TID 0000.0001) // Tile number: 000116 (process no. = 000000)
(PID.TID 0000.0001) //        WEST: Tile = 000115, Process = 000000, Comm = put
(PID.TID 0000.0001) //                bi = 000010, bj = 000008
(PID.TID 0000.0001) //        EAST: Tile = 000117, Process = 000000, Comm = put
(PID.TID 0000.0001) //                bi = 000012, bj = 000008
(PID.TID 0000.0001) //       SOUTH: Tile = 000101, Process = 000000, Comm = put
(PID.TID 0000.0001) //                bi = 000011, bj = 000007
(PID.TID 0000.0001) //       NORTH: Tile = 000131, Process = 000000, Comm = put
(PID.TID 0000.0001) //                bi = 000011, bj = 000009
(PID.TID 0000.0001) // Tile number: 000117 (process no. = 000000)
(PID.TID 0000.0001) //        WEST: Tile = 000116, Process = 000000, Comm = put
(PID.TID 0000.0001) //                bi = 000011, bj = 000008
(PID.TID 0000.0001) //        EAST: Tile = 000118, Process = 000000, Comm = put
(PID.TID 0000.0001) //                bi = 000013, bj = 000008
(PID.TID 0000.0001) //       SOUTH: Tile = 000102, Process = 000000, Comm = put
(PID.TID 0000.0001) //                bi = 000012, bj = 000007
(PID.TID 0000.0001) //       NORTH: Tile = 000132, Process = 000000, Comm = put
(PID.TID 0000.0001) //                bi = 000012, bj = 000009
(PID.TID 0000.0001) // Tile number: 000118 (process no. = 000000)
(PID.TID 0000.0001) //        WEST: Tile = 000117, Process = 000000, Comm = put
(PID.TID 0000.0001) //                bi = 000012, bj = 000008
(PID.TID 0000.0001) //        EAST: Tile = 000119, Process = 000000, Comm = put
(PID.TID 0000.0001) //                bi = 000014, bj = 000008
(PID.TID 0000.0001) //       SOUTH: Tile = 000103, Process = 000000, Comm = put
(PID.TID 0000.0001) //                bi = 000013, bj = 000007
(PID.TID 0000.0001) //       NORTH: Tile = 000133, Process = 000000, Comm = put
(PID.TID 0000.0001) //                bi = 000013, bj = 000009
(PID.TID 0000.0001) // Tile number: 000119 (process no. = 000000)
(PID.TID 0000.0001) //        WEST: Tile = 000118, Process = 000000, Comm = put
(PID.TID 0000.0001) //                bi = 000013, bj = 000008
(PID.TID 0000.0001) //        EAST: Tile = 000120, Process = 000000, Comm = put
(PID.TID 0000.0001) //                bi = 000015, bj = 000008
(PID.TID 0000.0001) //       SOUTH: Tile = 000104, Process = 000000, Comm = put
(PID.TID 0000.0001) //                bi = 000014, bj = 000007
(PID.TID 0000.0001) //       NORTH: Tile = 000134, Process = 000000, Comm = put
(PID.TID 0000.0001) //                bi = 000014, bj = 000009
(PID.TID 0000.0001) // Tile number: 000120 (process no. = 000000)
(PID.TID 0000.0001) //        WEST: Tile = 000119, Process = 000000, Comm = put
(PID.TID 0000.0001) //                bi = 000014, bj = 000008
(PID.TID 0000.0001) //        EAST: Tile = 000106, Process = 000000, Comm = put
(PID.TID 0000.0001) //                bi = 000001, bj = 000008
(PID.TID 0000.0001) //       SOUTH: Tile = 000105, Process = 000000, Comm = put
(PID.TID 0000.0001) //                bi = 000015, bj = 000007
(PID.TID 0000.0001) //       NORTH: Tile = 000135, Process = 000000, Comm = put
(PID.TID 0000.0001) //                bi = 000015, bj = 000009
(PID.TID 0000.0001) // Tile number: 000121 (process no. = 000000)
(PID.TID 0000.0001) //        WEST: Tile = 000135, Process = 000000, Comm = put
(PID.TID 0000.0001) //                bi = 000015, bj = 000009
(PID.TID 0000.0001) //        EAST: Tile = 000122, Process = 000000, Comm = put
(PID.TID 0000.0001) //                bi = 000002, bj = 000009
(PID.TID 0000.0001) //       SOUTH: Tile = 000106, Process = 000000, Comm = put
(PID.TID 0000.0001) //                bi = 000001, bj = 000008
(PID.TID 0000.0001) //       NORTH: Tile = 000136, Process = 000000, Comm = put
(PID.TID 0000.0001) //                bi = 000001, bj = 000010
(PID.TID 0000.0001) // Tile number: 000122 (process no. = 000000)
(PID.TID 0000.0001) //        WEST: Tile = 000121, Process = 000000, Comm = put
(PID.TID 0000.0001) //                bi = 000001, bj = 000009
(PID.TID 0000.0001) //        EAST: Tile = 000123, Process = 000000, Comm = put
(PID.TID 0000.0001) //                bi = 000003, bj = 000009
(PID.TID 0000.0001) //       SOUTH: Tile = 000107, Process = 000000, Comm = put
(PID.TID 0000.0001) //                bi = 000002, bj = 000008
(PID.TID 0000.0001) //       NORTH: Tile = 000137, Process = 000000, Comm = put
(PID.TID 0000.0001) //                bi = 000002, bj = 000010
(PID.TID 0000.0001) // Tile number: 000123 (process no. = 000000)
(PID.TID 0000.0001) //        WEST: Tile = 000122, Process = 000000, Comm = put
(PID.TID 0000.0001) //                bi = 000002, bj = 000009
(PID.TID 0000.0001) //        EAST: Tile = 000124, Process = 000000, Comm = put
(PID.TID 0000.0001) //                bi = 000004, bj = 000009
(PID.TID 0000.0001) //       SOUTH: Tile = 000108, Process = 000000, Comm = put
(PID.TID 0000.0001) //                bi = 000003, bj = 000008
(PID.TID 0000.0001) //       NORTH: Tile = 000138, Process = 000000, Comm = put
(PID.TID 0000.0001) //                bi = 000003, bj = 000010
(PID.TID 0000.0001) // Tile number: 000124 (process no. = 000000)
(PID.TID 0000.0001) //        WEST: Tile = 000123, Process = 000000, Comm = put
(PID.TID 0000.0001) //                bi = 000003, bj = 000009
(PID.TID 0000.0001) //        EAST: Tile = 000125, Process = 000000, Comm = put
(PID.TID 0000.0001) //                bi = 000005, bj = 000009
(PID.TID 0000.0001) //       SOUTH: Tile = 000109, Process = 000000, Comm = put
(PID.TID 0000.0001) //                bi = 000004, bj = 000008
(PID.TID 0000.0001) //       NORTH: Tile = 000139, Process = 000000, Comm = put
(PID.TID 0000.0001) //                bi = 000004, bj = 000010
(PID.TID 0000.0001) // Tile number: 000125 (process no. = 000000)
(PID.TID 0000.0001) //        WEST: Tile = 000124, Process = 000000, Comm = put
(PID.TID 0000.0001) //                bi = 000004, bj = 000009
(PID.TID 0000.0001) //        EAST: Tile = 000126, Process = 000000, Comm = put
(PID.TID 0000.0001) //                bi = 000006, bj = 000009
(PID.TID 0000.0001) //       SOUTH: Tile = 000110, Process = 000000, Comm = put
(PID.TID 0000.0001) //                bi = 000005, bj = 000008
(PID.TID 0000.0001) //       NORTH: Tile = 000140, Process = 000000, Comm = put
(PID.TID 0000.0001) //                bi = 000005, bj = 000010
(PID.TID 0000.0001) // Tile number: 000126 (process no. = 000000)
(PID.TID 0000.0001) //        WEST: Tile = 000125, Process = 000000, Comm = put
(PID.TID 0000.0001) //                bi = 000005, bj = 000009
(PID.TID 0000.0001) //        EAST: Tile = 000127, Process = 000000, Comm = put
(PID.TID 0000.0001) //                bi = 000007, bj = 000009
(PID.TID 0000.0001) //       SOUTH: Tile = 000111, Process = 000000, Comm = put
(PID.TID 0000.0001) //                bi = 000006, bj = 000008
(PID.TID 0000.0001) //       NORTH: Tile = 000141, Process = 000000, Comm = put
(PID.TID 0000.0001) //                bi = 000006, bj = 000010
(PID.TID 0000.0001) // Tile number: 000127 (process no. = 000000)
(PID.TID 0000.0001) //        WEST: Tile = 000126, Process = 000000, Comm = put
(PID.TID 0000.0001) //                bi = 000006, bj = 000009
(PID.TID 0000.0001) //        EAST: Tile = 000128, Process = 000000, Comm = put
(PID.TID 0000.0001) //                bi = 000008, bj = 000009
(PID.TID 0000.0001) //       SOUTH: Tile = 000112, Process = 000000, Comm = put
(PID.TID 0000.0001) //                bi = 000007, bj = 000008
(PID.TID 0000.0001) //       NORTH: Tile = 000142, Process = 000000, Comm = put
(PID.TID 0000.0001) //                bi = 000007, bj = 000010
(PID.TID 0000.0001) // Tile number: 000128 (process no. = 000000)
(PID.TID 0000.0001) //        WEST: Tile = 000127, Process = 000000, Comm = put
(PID.TID 0000.0001) //                bi = 000007, bj = 000009
(PID.TID 0000.0001) //        EAST: Tile = 000129, Process = 000000, Comm = put
(PID.TID 0000.0001) //                bi = 000009, bj = 000009
(PID.TID 0000.0001) //       SOUTH: Tile = 000113, Process = 000000, Comm = put
(PID.TID 0000.0001) //                bi = 000008, bj = 000008
(PID.TID 0000.0001) //       NORTH: Tile = 000143, Process = 000000, Comm = put
(PID.TID 0000.0001) //                bi = 000008, bj = 000010
(PID.TID 0000.0001) // Tile number: 000129 (process no. = 000000)
(PID.TID 0000.0001) //        WEST: Tile = 000128, Process = 000000, Comm = put
(PID.TID 0000.0001) //                bi = 000008, bj = 000009
(PID.TID 0000.0001) //        EAST: Tile = 000130, Process = 000000, Comm = put
(PID.TID 0000.0001) //                bi = 000010, bj = 000009
(PID.TID 0000.0001) //       SOUTH: Tile = 000114, Process = 000000, Comm = put
(PID.TID 0000.0001) //                bi = 000009, bj = 000008
(PID.TID 0000.0001) //       NORTH: Tile = 000144, Process = 000000, Comm = put
(PID.TID 0000.0001) //                bi = 000009, bj = 000010
(PID.TID 0000.0001) // Tile number: 000130 (process no. = 000000)
(PID.TID 0000.0001) //        WEST: Tile = 000129, Process = 000000, Comm = put
(PID.TID 0000.0001) //                bi = 000009, bj = 000009
(PID.TID 0000.0001) //        EAST: Tile = 000131, Process = 000000, Comm = put
(PID.TID 0000.0001) //                bi = 000011, bj = 000009
(PID.TID 0000.0001) //       SOUTH: Tile = 000115, Process = 000000, Comm = put
(PID.TID 0000.0001) //                bi = 000010, bj = 000008
(PID.TID 0000.0001) //       NORTH: Tile = 000145, Process = 000000, Comm = put
(PID.TID 0000.0001) //                bi = 000010, bj = 000010
(PID.TID 0000.0001) // Tile number: 000131 (process no. = 000000)
(PID.TID 0000.0001) //        WEST: Tile = 000130, Process = 000000, Comm = put
(PID.TID 0000.0001) //                bi = 000010, bj = 000009
(PID.TID 0000.0001) //        EAST: Tile = 000132, Process = 000000, Comm = put
(PID.TID 0000.0001) //                bi = 000012, bj = 000009
(PID.TID 0000.0001) //       SOUTH: Tile = 000116, Process = 000000, Comm = put
(PID.TID 0000.0001) //                bi = 000011, bj = 000008
(PID.TID 0000.0001) //       NORTH: Tile = 000146, Process = 000000, Comm = put
(PID.TID 0000.0001) //                bi = 000011, bj = 000010
(PID.TID 0000.0001) // Tile number: 000132 (process no. = 000000)
(PID.TID 0000.0001) //        WEST: Tile = 000131, Process = 000000, Comm = put
(PID.TID 0000.0001) //                bi = 000011, bj = 000009
(PID.TID 0000.0001) //        EAST: Tile = 000133, Process = 000000, Comm = put
(PID.TID 0000.0001) //                bi = 000013, bj = 000009
(PID.TID 0000.0001) //       SOUTH: Tile = 000117, Process = 000000, Comm = put
(PID.TID 0000.0001) //                bi = 000012, bj = 000008
(PID.TID 0000.0001) //       NORTH: Tile = 000147, Process = 000000, Comm = put
(PID.TID 0000.0001) //                bi = 000012, bj = 000010
(PID.TID 0000.0001) // Tile number: 000133 (process no. = 000000)
(PID.TID 0000.0001) //        WEST: Tile = 000132, Process = 000000, Comm = put
(PID.TID 0000.0001) //                bi = 000012, bj = 000009
(PID.TID 0000.0001) //        EAST: Tile = 000134, Process = 000000, Comm = put
(PID.TID 0000.0001) //                bi = 000014, bj = 000009
(PID.TID 0000.0001) //       SOUTH: Tile = 000118, Process = 000000, Comm = put
(PID.TID 0000.0001) //                bi = 000013, bj = 000008
(PID.TID 0000.0001) //       NORTH: Tile = 000148, Process = 000000, Comm = put
(PID.TID 0000.0001) //                bi = 000013, bj = 000010
(PID.TID 0000.0001) // Tile number: 000134 (process no. = 000000)
(PID.TID 0000.0001) //        WEST: Tile = 000133, Process = 000000, Comm = put
(PID.TID 0000.0001) //                bi = 000013, bj = 000009
(PID.TID 0000.0001) //        EAST: Tile = 000135, Process = 000000, Comm = put
(PID.TID 0000.0001) //                bi = 000015, bj = 000009
(PID.TID 0000.0001) //       SOUTH: Tile = 000119, Process = 000000, Comm = put
(PID.TID 0000.0001) //                bi = 000014, bj = 000008
(PID.TID 0000.0001) //       NORTH: Tile = 000149, Process = 000000, Comm = put
(PID.TID 0000.0001) //                bi = 000014, bj = 000010
(PID.TID 0000.0001) // Tile number: 000135 (process no. = 000000)
(PID.TID 0000.0001) //        WEST: Tile = 000134, Process = 000000, Comm = put
(PID.TID 0000.0001) //                bi = 000014, bj = 000009
(PID.TID 0000.0001) //        EAST: Tile = 000121, Process = 000000, Comm = put
(PID.TID 0000.0001) //                bi = 000001, bj = 000009
(PID.TID 0000.0001) //       SOUTH: Tile = 000120, Process = 000000, Comm = put
(PID.TID 0000.0001) //                bi = 000015, bj = 000008
(PID.TID 0000.0001) //       NORTH: Tile = 000150, Process = 000000, Comm = put
(PID.TID 0000.0001) //                bi = 000015, bj = 000010
(PID.TID 0000.0001) // Tile number: 000136 (process no. = 000000)
(PID.TID 0000.0001) //        WEST: Tile = 000150, Process = 000000, Comm = put
(PID.TID 0000.0001) //                bi = 000015, bj = 000010
(PID.TID 0000.0001) //        EAST: Tile = 000137, Process = 000000, Comm = put
(PID.TID 0000.0001) //                bi = 000002, bj = 000010
(PID.TID 0000.0001) //       SOUTH: Tile = 000121, Process = 000000, Comm = put
(PID.TID 0000.0001) //                bi = 000001, bj = 000009
(PID.TID 0000.0001) //       NORTH: Tile = 000151, Process = 000000, Comm = put
(PID.TID 0000.0001) //                bi = 000001, bj = 000011
(PID.TID 0000.0001) // Tile number: 000137 (process no. = 000000)
(PID.TID 0000.0001) //        WEST: Tile = 000136, Process = 000000, Comm = put
(PID.TID 0000.0001) //                bi = 000001, bj = 000010
(PID.TID 0000.0001) //        EAST: Tile = 000138, Process = 000000, Comm = put
(PID.TID 0000.0001) //                bi = 000003, bj = 000010
(PID.TID 0000.0001) //       SOUTH: Tile = 000122, Process = 000000, Comm = put
(PID.TID 0000.0001) //                bi = 000002, bj = 000009
(PID.TID 0000.0001) //       NORTH: Tile = 000152, Process = 000000, Comm = put
(PID.TID 0000.0001) //                bi = 000002, bj = 000011
(PID.TID 0000.0001) // Tile number: 000138 (process no. = 000000)
(PID.TID 0000.0001) //        WEST: Tile = 000137, Process = 000000, Comm = put
(PID.TID 0000.0001) //                bi = 000002, bj = 000010
(PID.TID 0000.0001) //        EAST: Tile = 000139, Process = 000000, Comm = put
(PID.TID 0000.0001) //                bi = 000004, bj = 000010
(PID.TID 0000.0001) //       SOUTH: Tile = 000123, Process = 000000, Comm = put
(PID.TID 0000.0001) //                bi = 000003, bj = 000009
(PID.TID 0000.0001) //       NORTH: Tile = 000153, Process = 000000, Comm = put
(PID.TID 0000.0001) //                bi = 000003, bj = 000011
(PID.TID 0000.0001) // Tile number: 000139 (process no. = 000000)
(PID.TID 0000.0001) //        WEST: Tile = 000138, Process = 000000, Comm = put
(PID.TID 0000.0001) //                bi = 000003, bj = 000010
(PID.TID 0000.0001) //        EAST: Tile = 000140, Process = 000000, Comm = put
(PID.TID 0000.0001) //                bi = 000005, bj = 000010
(PID.TID 0000.0001) //       SOUTH: Tile = 000124, Process = 000000, Comm = put
(PID.TID 0000.0001) //                bi = 000004, bj = 000009
(PID.TID 0000.0001) //       NORTH: Tile = 000154, Process = 000000, Comm = put
(PID.TID 0000.0001) //                bi = 000004, bj = 000011
(PID.TID 0000.0001) // Tile number: 000140 (process no. = 000000)
(PID.TID 0000.0001) //        WEST: Tile = 000139, Process = 000000, Comm = put
(PID.TID 0000.0001) //                bi = 000004, bj = 000010
(PID.TID 0000.0001) //        EAST: Tile = 000141, Process = 000000, Comm = put
(PID.TID 0000.0001) //                bi = 000006, bj = 000010
(PID.TID 0000.0001) //       SOUTH: Tile = 000125, Process = 000000, Comm = put
(PID.TID 0000.0001) //                bi = 000005, bj = 000009
(PID.TID 0000.0001) //       NORTH: Tile = 000155, Process = 000000, Comm = put
(PID.TID 0000.0001) //                bi = 000005, bj = 000011
(PID.TID 0000.0001) // Tile number: 000141 (process no. = 000000)
(PID.TID 0000.0001) //        WEST: Tile = 000140, Process = 000000, Comm = put
(PID.TID 0000.0001) //                bi = 000005, bj = 000010
(PID.TID 0000.0001) //        EAST: Tile = 000142, Process = 000000, Comm = put
(PID.TID 0000.0001) //                bi = 000007, bj = 000010
(PID.TID 0000.0001) //       SOUTH: Tile = 000126, Process = 000000, Comm = put
(PID.TID 0000.0001) //                bi = 000006, bj = 000009
(PID.TID 0000.0001) //       NORTH: Tile = 000156, Process = 000000, Comm = put
(PID.TID 0000.0001) //                bi = 000006, bj = 000011
(PID.TID 0000.0001) // Tile number: 000142 (process no. = 000000)
(PID.TID 0000.0001) //        WEST: Tile = 000141, Process = 000000, Comm = put
(PID.TID 0000.0001) //                bi = 000006, bj = 000010
(PID.TID 0000.0001) //        EAST: Tile = 000143, Process = 000000, Comm = put
(PID.TID 0000.0001) //                bi = 000008, bj = 000010
(PID.TID 0000.0001) //       SOUTH: Tile = 000127, Process = 000000, Comm = put
(PID.TID 0000.0001) //                bi = 000007, bj = 000009
(PID.TID 0000.0001) //       NORTH: Tile = 000157, Process = 000000, Comm = put
(PID.TID 0000.0001) //                bi = 000007, bj = 000011
(PID.TID 0000.0001) // Tile number: 000143 (process no. = 000000)
(PID.TID 0000.0001) //        WEST: Tile = 000142, Process = 000000, Comm = put
(PID.TID 0000.0001) //                bi = 000007, bj = 000010
(PID.TID 0000.0001) //        EAST: Tile = 000144, Process = 000000, Comm = put
(PID.TID 0000.0001) //                bi = 000009, bj = 000010
(PID.TID 0000.0001) //       SOUTH: Tile = 000128, Process = 000000, Comm = put
(PID.TID 0000.0001) //                bi = 000008, bj = 000009
(PID.TID 0000.0001) //       NORTH: Tile = 000158, Process = 000000, Comm = put
(PID.TID 0000.0001) //                bi = 000008, bj = 000011
(PID.TID 0000.0001) // Tile number: 000144 (process no. = 000000)
(PID.TID 0000.0001) //        WEST: Tile = 000143, Process = 000000, Comm = put
(PID.TID 0000.0001) //                bi = 000008, bj = 000010
(PID.TID 0000.0001) //        EAST: Tile = 000145, Process = 000000, Comm = put
(PID.TID 0000.0001) //                bi = 000010, bj = 000010
(PID.TID 0000.0001) //       SOUTH: Tile = 000129, Process = 000000, Comm = put
(PID.TID 0000.0001) //                bi = 000009, bj = 000009
(PID.TID 0000.0001) //       NORTH: Tile = 000159, Process = 000000, Comm = put
(PID.TID 0000.0001) //                bi = 000009, bj = 000011
(PID.TID 0000.0001) // Tile number: 000145 (process no. = 000000)
(PID.TID 0000.0001) //        WEST: Tile = 000144, Process = 000000, Comm = put
(PID.TID 0000.0001) //                bi = 000009, bj = 000010
(PID.TID 0000.0001) //        EAST: Tile = 000146, Process = 000000, Comm = put
(PID.TID 0000.0001) //                bi = 000011, bj = 000010
(PID.TID 0000.0001) //       SOUTH: Tile = 000130, Process = 000000, Comm = put
(PID.TID 0000.0001) //                bi = 000010, bj = 000009
(PID.TID 0000.0001) //       NORTH: Tile = 000160, Process = 000000, Comm = put
(PID.TID 0000.0001) //                bi = 000010, bj = 000011
(PID.TID 0000.0001) // Tile number: 000146 (process no. = 000000)
(PID.TID 0000.0001) //        WEST: Tile = 000145, Process = 000000, Comm = put
(PID.TID 0000.0001) //                bi = 000010, bj = 000010
(PID.TID 0000.0001) //        EAST: Tile = 000147, Process = 000000, Comm = put
(PID.TID 0000.0001) //                bi = 000012, bj = 000010
(PID.TID 0000.0001) //       SOUTH: Tile = 000131, Process = 000000, Comm = put
(PID.TID 0000.0001) //                bi = 000011, bj = 000009
(PID.TID 0000.0001) //       NORTH: Tile = 000161, Process = 000000, Comm = put
(PID.TID 0000.0001) //                bi = 000011, bj = 000011
(PID.TID 0000.0001) // Tile number: 000147 (process no. = 000000)
(PID.TID 0000.0001) //        WEST: Tile = 000146, Process = 000000, Comm = put
(PID.TID 0000.0001) //                bi = 000011, bj = 000010
(PID.TID 0000.0001) //        EAST: Tile = 000148, Process = 000000, Comm = put
(PID.TID 0000.0001) //                bi = 000013, bj = 000010
(PID.TID 0000.0001) //       SOUTH: Tile = 000132, Process = 000000, Comm = put
(PID.TID 0000.0001) //                bi = 000012, bj = 000009
(PID.TID 0000.0001) //       NORTH: Tile = 000162, Process = 000000, Comm = put
(PID.TID 0000.0001) //                bi = 000012, bj = 000011
(PID.TID 0000.0001) // Tile number: 000148 (process no. = 000000)
(PID.TID 0000.0001) //        WEST: Tile = 000147, Process = 000000, Comm = put
(PID.TID 0000.0001) //                bi = 000012, bj = 000010
(PID.TID 0000.0001) //        EAST: Tile = 000149, Process = 000000, Comm = put
(PID.TID 0000.0001) //                bi = 000014, bj = 000010
(PID.TID 0000.0001) //       SOUTH: Tile = 000133, Process = 000000, Comm = put
(PID.TID 0000.0001) //                bi = 000013, bj = 000009
(PID.TID 0000.0001) //       NORTH: Tile = 000163, Process = 000000, Comm = put
(PID.TID 0000.0001) //                bi = 000013, bj = 000011
(PID.TID 0000.0001) // Tile number: 000149 (process no. = 000000)
(PID.TID 0000.0001) //        WEST: Tile = 000148, Process = 000000, Comm = put
(PID.TID 0000.0001) //                bi = 000013, bj = 000010
(PID.TID 0000.0001) //        EAST: Tile = 000150, Process = 000000, Comm = put
(PID.TID 0000.0001) //                bi = 000015, bj = 000010
(PID.TID 0000.0001) //       SOUTH: Tile = 000134, Process = 000000, Comm = put
(PID.TID 0000.0001) //                bi = 000014, bj = 000009
(PID.TID 0000.0001) //       NORTH: Tile = 000164, Process = 000000, Comm = put
(PID.TID 0000.0001) //                bi = 000014, bj = 000011
(PID.TID 0000.0001) // Tile number: 000150 (process no. = 000000)
(PID.TID 0000.0001) //        WEST: Tile = 000149, Process = 000000, Comm = put
(PID.TID 0000.0001) //                bi = 000014, bj = 000010
(PID.TID 0000.0001) //        EAST: Tile = 000136, Process = 000000, Comm = put
(PID.TID 0000.0001) //                bi = 000001, bj = 000010
(PID.TID 0000.0001) //       SOUTH: Tile = 000135, Process = 000000, Comm = put
(PID.TID 0000.0001) //                bi = 000015, bj = 000009
(PID.TID 0000.0001) //       NORTH: Tile = 000165, Process = 000000, Comm = put
(PID.TID 0000.0001) //                bi = 000015, bj = 000011
(PID.TID 0000.0001) // Tile number: 000151 (process no. = 000000)
(PID.TID 0000.0001) //        WEST: Tile = 000165, Process = 000000, Comm = put
(PID.TID 0000.0001) //                bi = 000015, bj = 000011
(PID.TID 0000.0001) //        EAST: Tile = 000152, Process = 000000, Comm = put
(PID.TID 0000.0001) //                bi = 000002, bj = 000011
(PID.TID 0000.0001) //       SOUTH: Tile = 000136, Process = 000000, Comm = put
(PID.TID 0000.0001) //                bi = 000001, bj = 000010
(PID.TID 0000.0001) //       NORTH: Tile = 000166, Process = 000000, Comm = put
(PID.TID 0000.0001) //                bi = 000001, bj = 000012
(PID.TID 0000.0001) // Tile number: 000152 (process no. = 000000)
(PID.TID 0000.0001) //        WEST: Tile = 000151, Process = 000000, Comm = put
(PID.TID 0000.0001) //                bi = 000001, bj = 000011
(PID.TID 0000.0001) //        EAST: Tile = 000153, Process = 000000, Comm = put
(PID.TID 0000.0001) //                bi = 000003, bj = 000011
(PID.TID 0000.0001) //       SOUTH: Tile = 000137, Process = 000000, Comm = put
(PID.TID 0000.0001) //                bi = 000002, bj = 000010
(PID.TID 0000.0001) //       NORTH: Tile = 000167, Process = 000000, Comm = put
(PID.TID 0000.0001) //                bi = 000002, bj = 000012
(PID.TID 0000.0001) // Tile number: 000153 (process no. = 000000)
(PID.TID 0000.0001) //        WEST: Tile = 000152, Process = 000000, Comm = put
(PID.TID 0000.0001) //                bi = 000002, bj = 000011
(PID.TID 0000.0001) //        EAST: Tile = 000154, Process = 000000, Comm = put
(PID.TID 0000.0001) //                bi = 000004, bj = 000011
(PID.TID 0000.0001) //       SOUTH: Tile = 000138, Process = 000000, Comm = put
(PID.TID 0000.0001) //                bi = 000003, bj = 000010
(PID.TID 0000.0001) //       NORTH: Tile = 000168, Process = 000000, Comm = put
(PID.TID 0000.0001) //                bi = 000003, bj = 000012
(PID.TID 0000.0001) // Tile number: 000154 (process no. = 000000)
(PID.TID 0000.0001) //        WEST: Tile = 000153, Process = 000000, Comm = put
(PID.TID 0000.0001) //                bi = 000003, bj = 000011
(PID.TID 0000.0001) //        EAST: Tile = 000155, Process = 000000, Comm = put
(PID.TID 0000.0001) //                bi = 000005, bj = 000011
(PID.TID 0000.0001) //       SOUTH: Tile = 000139, Process = 000000, Comm = put
(PID.TID 0000.0001) //                bi = 000004, bj = 000010
(PID.TID 0000.0001) //       NORTH: Tile = 000169, Process = 000000, Comm = put
(PID.TID 0000.0001) //                bi = 000004, bj = 000012
(PID.TID 0000.0001) // Tile number: 000155 (process no. = 000000)
(PID.TID 0000.0001) //        WEST: Tile = 000154, Process = 000000, Comm = put
(PID.TID 0000.0001) //                bi = 000004, bj = 000011
(PID.TID 0000.0001) //        EAST: Tile = 000156, Process = 000000, Comm = put
(PID.TID 0000.0001) //                bi = 000006, bj = 000011
(PID.TID 0000.0001) //       SOUTH: Tile = 000140, Process = 000000, Comm = put
(PID.TID 0000.0001) //                bi = 000005, bj = 000010
(PID.TID 0000.0001) //       NORTH: Tile = 000170, Process = 000000, Comm = put
(PID.TID 0000.0001) //                bi = 000005, bj = 000012
(PID.TID 0000.0001) // Tile number: 000156 (process no. = 000000)
(PID.TID 0000.0001) //        WEST: Tile = 000155, Process = 000000, Comm = put
(PID.TID 0000.0001) //                bi = 000005, bj = 000011
(PID.TID 0000.0001) //        EAST: Tile = 000157, Process = 000000, Comm = put
(PID.TID 0000.0001) //                bi = 000007, bj = 000011
(PID.TID 0000.0001) //       SOUTH: Tile = 000141, Process = 000000, Comm = put
(PID.TID 0000.0001) //                bi = 000006, bj = 000010
(PID.TID 0000.0001) //       NORTH: Tile = 000171, Process = 000000, Comm = put
(PID.TID 0000.0001) //                bi = 000006, bj = 000012
(PID.TID 0000.0001) // Tile number: 000157 (process no. = 000000)
(PID.TID 0000.0001) //        WEST: Tile = 000156, Process = 000000, Comm = put
(PID.TID 0000.0001) //                bi = 000006, bj = 000011
(PID.TID 0000.0001) //        EAST: Tile = 000158, Process = 000000, Comm = put
(PID.TID 0000.0001) //                bi = 000008, bj = 000011
(PID.TID 0000.0001) //       SOUTH: Tile = 000142, Process = 000000, Comm = put
(PID.TID 0000.0001) //                bi = 000007, bj = 000010
(PID.TID 0000.0001) //       NORTH: Tile = 000172, Process = 000000, Comm = put
(PID.TID 0000.0001) //                bi = 000007, bj = 000012
(PID.TID 0000.0001) // Tile number: 000158 (process no. = 000000)
(PID.TID 0000.0001) //        WEST: Tile = 000157, Process = 000000, Comm = put
(PID.TID 0000.0001) //                bi = 000007, bj = 000011
(PID.TID 0000.0001) //        EAST: Tile = 000159, Process = 000000, Comm = put
(PID.TID 0000.0001) //                bi = 000009, bj = 000011
(PID.TID 0000.0001) //       SOUTH: Tile = 000143, Process = 000000, Comm = put
(PID.TID 0000.0001) //                bi = 000008, bj = 000010
(PID.TID 0000.0001) //       NORTH: Tile = 000173, Process = 000000, Comm = put
(PID.TID 0000.0001) //                bi = 000008, bj = 000012
(PID.TID 0000.0001) // Tile number: 000159 (process no. = 000000)
(PID.TID 0000.0001) //        WEST: Tile = 000158, Process = 000000, Comm = put
(PID.TID 0000.0001) //                bi = 000008, bj = 000011
(PID.TID 0000.0001) //        EAST: Tile = 000160, Process = 000000, Comm = put
(PID.TID 0000.0001) //                bi = 000010, bj = 000011
(PID.TID 0000.0001) //       SOUTH: Tile = 000144, Process = 000000, Comm = put
(PID.TID 0000.0001) //                bi = 000009, bj = 000010
(PID.TID 0000.0001) //       NORTH: Tile = 000174, Process = 000000, Comm = put
(PID.TID 0000.0001) //                bi = 000009, bj = 000012
(PID.TID 0000.0001) // Tile number: 000160 (process no. = 000000)
(PID.TID 0000.0001) //        WEST: Tile = 000159, Process = 000000, Comm = put
(PID.TID 0000.0001) //                bi = 000009, bj = 000011
(PID.TID 0000.0001) //        EAST: Tile = 000161, Process = 000000, Comm = put
(PID.TID 0000.0001) //                bi = 000011, bj = 000011
(PID.TID 0000.0001) //       SOUTH: Tile = 000145, Process = 000000, Comm = put
(PID.TID 0000.0001) //                bi = 000010, bj = 000010
(PID.TID 0000.0001) //       NORTH: Tile = 000175, Process = 000000, Comm = put
(PID.TID 0000.0001) //                bi = 000010, bj = 000012
(PID.TID 0000.0001) // Tile number: 000161 (process no. = 000000)
(PID.TID 0000.0001) //        WEST: Tile = 000160, Process = 000000, Comm = put
(PID.TID 0000.0001) //                bi = 000010, bj = 000011
(PID.TID 0000.0001) //        EAST: Tile = 000162, Process = 000000, Comm = put
(PID.TID 0000.0001) //                bi = 000012, bj = 000011
(PID.TID 0000.0001) //       SOUTH: Tile = 000146, Process = 000000, Comm = put
(PID.TID 0000.0001) //                bi = 000011, bj = 000010
(PID.TID 0000.0001) //       NORTH: Tile = 000176, Process = 000000, Comm = put
(PID.TID 0000.0001) //                bi = 000011, bj = 000012
(PID.TID 0000.0001) // Tile number: 000162 (process no. = 000000)
(PID.TID 0000.0001) //        WEST: Tile = 000161, Process = 000000, Comm = put
(PID.TID 0000.0001) //                bi = 000011, bj = 000011
(PID.TID 0000.0001) //        EAST: Tile = 000163, Process = 000000, Comm = put
(PID.TID 0000.0001) //                bi = 000013, bj = 000011
(PID.TID 0000.0001) //       SOUTH: Tile = 000147, Process = 000000, Comm = put
(PID.TID 0000.0001) //                bi = 000012, bj = 000010
(PID.TID 0000.0001) //       NORTH: Tile = 000177, Process = 000000, Comm = put
(PID.TID 0000.0001) //                bi = 000012, bj = 000012
(PID.TID 0000.0001) // Tile number: 000163 (process no. = 000000)
(PID.TID 0000.0001) //        WEST: Tile = 000162, Process = 000000, Comm = put
(PID.TID 0000.0001) //                bi = 000012, bj = 000011
(PID.TID 0000.0001) //        EAST: Tile = 000164, Process = 000000, Comm = put
(PID.TID 0000.0001) //                bi = 000014, bj = 000011
(PID.TID 0000.0001) //       SOUTH: Tile = 000148, Process = 000000, Comm = put
(PID.TID 0000.0001) //                bi = 000013, bj = 000010
(PID.TID 0000.0001) //       NORTH: Tile = 000178, Process = 000000, Comm = put
(PID.TID 0000.0001) //                bi = 000013, bj = 000012
(PID.TID 0000.0001) // Tile number: 000164 (process no. = 000000)
(PID.TID 0000.0001) //        WEST: Tile = 000163, Process = 000000, Comm = put
(PID.TID 0000.0001) //                bi = 000013, bj = 000011
(PID.TID 0000.0001) //        EAST: Tile = 000165, Process = 000000, Comm = put
(PID.TID 0000.0001) //                bi = 000015, bj = 000011
(PID.TID 0000.0001) //       SOUTH: Tile = 000149, Process = 000000, Comm = put
(PID.TID 0000.0001) //                bi = 000014, bj = 000010
(PID.TID 0000.0001) //       NORTH: Tile = 000179, Process = 000000, Comm = put
(PID.TID 0000.0001) //                bi = 000014, bj = 000012
(PID.TID 0000.0001) // Tile number: 000165 (process no. = 000000)
(PID.TID 0000.0001) //        WEST: Tile = 000164, Process = 000000, Comm = put
(PID.TID 0000.0001) //                bi = 000014, bj = 000011
(PID.TID 0000.0001) //        EAST: Tile = 000151, Process = 000000, Comm = put
(PID.TID 0000.0001) //                bi = 000001, bj = 000011
(PID.TID 0000.0001) //       SOUTH: Tile = 000150, Process = 000000, Comm = put
(PID.TID 0000.0001) //                bi = 000015, bj = 000010
(PID.TID 0000.0001) //       NORTH: Tile = 000180, Process = 000000, Comm = put
(PID.TID 0000.0001) //                bi = 000015, bj = 000012
(PID.TID 0000.0001) // Tile number: 000166 (process no. = 000000)
(PID.TID 0000.0001) //        WEST: Tile = 000180, Process = 000000, Comm = put
(PID.TID 0000.0001) //                bi = 000015, bj = 000012
(PID.TID 0000.0001) //        EAST: Tile = 000167, Process = 000000, Comm = put
(PID.TID 0000.0001) //                bi = 000002, bj = 000012
(PID.TID 0000.0001) //       SOUTH: Tile = 000151, Process = 000000, Comm = put
(PID.TID 0000.0001) //                bi = 000001, bj = 000011
(PID.TID 0000.0001) //       NORTH: Tile = 000181, Process = 000000, Comm = put
(PID.TID 0000.0001) //                bi = 000001, bj = 000013
(PID.TID 0000.0001) // Tile number: 000167 (process no. = 000000)
(PID.TID 0000.0001) //        WEST: Tile = 000166, Process = 000000, Comm = put
(PID.TID 0000.0001) //                bi = 000001, bj = 000012
(PID.TID 0000.0001) //        EAST: Tile = 000168, Process = 000000, Comm = put
(PID.TID 0000.0001) //                bi = 000003, bj = 000012
(PID.TID 0000.0001) //       SOUTH: Tile = 000152, Process = 000000, Comm = put
(PID.TID 0000.0001) //                bi = 000002, bj = 000011
(PID.TID 0000.0001) //       NORTH: Tile = 000182, Process = 000000, Comm = put
(PID.TID 0000.0001) //                bi = 000002, bj = 000013
(PID.TID 0000.0001) // Tile number: 000168 (process no. = 000000)
(PID.TID 0000.0001) //        WEST: Tile = 000167, Process = 000000, Comm = put
(PID.TID 0000.0001) //                bi = 000002, bj = 000012
(PID.TID 0000.0001) //        EAST: Tile = 000169, Process = 000000, Comm = put
(PID.TID 0000.0001) //                bi = 000004, bj = 000012
(PID.TID 0000.0001) //       SOUTH: Tile = 000153, Process = 000000, Comm = put
(PID.TID 0000.0001) //                bi = 000003, bj = 000011
(PID.TID 0000.0001) //       NORTH: Tile = 000183, Process = 000000, Comm = put
(PID.TID 0000.0001) //                bi = 000003, bj = 000013
(PID.TID 0000.0001) // Tile number: 000169 (process no. = 000000)
(PID.TID 0000.0001) //        WEST: Tile = 000168, Process = 000000, Comm = put
(PID.TID 0000.0001) //                bi = 000003, bj = 000012
(PID.TID 0000.0001) //        EAST: Tile = 000170, Process = 000000, Comm = put
(PID.TID 0000.0001) //                bi = 000005, bj = 000012
(PID.TID 0000.0001) //       SOUTH: Tile = 000154, Process = 000000, Comm = put
(PID.TID 0000.0001) //                bi = 000004, bj = 000011
(PID.TID 0000.0001) //       NORTH: Tile = 000184, Process = 000000, Comm = put
(PID.TID 0000.0001) //                bi = 000004, bj = 000013
(PID.TID 0000.0001) // Tile number: 000170 (process no. = 000000)
(PID.TID 0000.0001) //        WEST: Tile = 000169, Process = 000000, Comm = put
(PID.TID 0000.0001) //                bi = 000004, bj = 000012
(PID.TID 0000.0001) //        EAST: Tile = 000171, Process = 000000, Comm = put
(PID.TID 0000.0001) //                bi = 000006, bj = 000012
(PID.TID 0000.0001) //       SOUTH: Tile = 000155, Process = 000000, Comm = put
(PID.TID 0000.0001) //                bi = 000005, bj = 000011
(PID.TID 0000.0001) //       NORTH: Tile = 000185, Process = 000000, Comm = put
(PID.TID 0000.0001) //                bi = 000005, bj = 000013
(PID.TID 0000.0001) // Tile number: 000171 (process no. = 000000)
(PID.TID 0000.0001) //        WEST: Tile = 000170, Process = 000000, Comm = put
(PID.TID 0000.0001) //                bi = 000005, bj = 000012
(PID.TID 0000.0001) //        EAST: Tile = 000172, Process = 000000, Comm = put
(PID.TID 0000.0001) //                bi = 000007, bj = 000012
(PID.TID 0000.0001) //       SOUTH: Tile = 000156, Process = 000000, Comm = put
(PID.TID 0000.0001) //                bi = 000006, bj = 000011
(PID.TID 0000.0001) //       NORTH: Tile = 000186, Process = 000000, Comm = put
(PID.TID 0000.0001) //                bi = 000006, bj = 000013
(PID.TID 0000.0001) // Tile number: 000172 (process no. = 000000)
(PID.TID 0000.0001) //        WEST: Tile = 000171, Process = 000000, Comm = put
(PID.TID 0000.0001) //                bi = 000006, bj = 000012
(PID.TID 0000.0001) //        EAST: Tile = 000173, Process = 000000, Comm = put
(PID.TID 0000.0001) //                bi = 000008, bj = 000012
(PID.TID 0000.0001) //       SOUTH: Tile = 000157, Process = 000000, Comm = put
(PID.TID 0000.0001) //                bi = 000007, bj = 000011
(PID.TID 0000.0001) //       NORTH: Tile = 000187, Process = 000000, Comm = put
(PID.TID 0000.0001) //                bi = 000007, bj = 000013
(PID.TID 0000.0001) // Tile number: 000173 (process no. = 000000)
(PID.TID 0000.0001) //        WEST: Tile = 000172, Process = 000000, Comm = put
(PID.TID 0000.0001) //                bi = 000007, bj = 000012
(PID.TID 0000.0001) //        EAST: Tile = 000174, Process = 000000, Comm = put
(PID.TID 0000.0001) //                bi = 000009, bj = 000012
(PID.TID 0000.0001) //       SOUTH: Tile = 000158, Process = 000000, Comm = put
(PID.TID 0000.0001) //                bi = 000008, bj = 000011
(PID.TID 0000.0001) //       NORTH: Tile = 000188, Process = 000000, Comm = put
(PID.TID 0000.0001) //                bi = 000008, bj = 000013
(PID.TID 0000.0001) // Tile number: 000174 (process no. = 000000)
(PID.TID 0000.0001) //        WEST: Tile = 000173, Process = 000000, Comm = put
(PID.TID 0000.0001) //                bi = 000008, bj = 000012
(PID.TID 0000.0001) //        EAST: Tile = 000175, Process = 000000, Comm = put
(PID.TID 0000.0001) //                bi = 000010, bj = 000012
(PID.TID 0000.0001) //       SOUTH: Tile = 000159, Process = 000000, Comm = put
(PID.TID 0000.0001) //                bi = 000009, bj = 000011
(PID.TID 0000.0001) //       NORTH: Tile = 000189, Process = 000000, Comm = put
(PID.TID 0000.0001) //                bi = 000009, bj = 000013
(PID.TID 0000.0001) // Tile number: 000175 (process no. = 000000)
(PID.TID 0000.0001) //        WEST: Tile = 000174, Process = 000000, Comm = put
(PID.TID 0000.0001) //                bi = 000009, bj = 000012
(PID.TID 0000.0001) //        EAST: Tile = 000176, Process = 000000, Comm = put
(PID.TID 0000.0001) //                bi = 000011, bj = 000012
(PID.TID 0000.0001) //       SOUTH: Tile = 000160, Process = 000000, Comm = put
(PID.TID 0000.0001) //                bi = 000010, bj = 000011
(PID.TID 0000.0001) //       NORTH: Tile = 000190, Process = 000000, Comm = put
(PID.TID 0000.0001) //                bi = 000010, bj = 000013
(PID.TID 0000.0001) // Tile number: 000176 (process no. = 000000)
(PID.TID 0000.0001) //        WEST: Tile = 000175, Process = 000000, Comm = put
(PID.TID 0000.0001) //                bi = 000010, bj = 000012
(PID.TID 0000.0001) //        EAST: Tile = 000177, Process = 000000, Comm = put
(PID.TID 0000.0001) //                bi = 000012, bj = 000012
(PID.TID 0000.0001) //       SOUTH: Tile = 000161, Process = 000000, Comm = put
(PID.TID 0000.0001) //                bi = 000011, bj = 000011
(PID.TID 0000.0001) //       NORTH: Tile = 000191, Process = 000000, Comm = put
(PID.TID 0000.0001) //                bi = 000011, bj = 000013
(PID.TID 0000.0001) // Tile number: 000177 (process no. = 000000)
(PID.TID 0000.0001) //        WEST: Tile = 000176, Process = 000000, Comm = put
(PID.TID 0000.0001) //                bi = 000011, bj = 000012
(PID.TID 0000.0001) //        EAST: Tile = 000178, Process = 000000, Comm = put
(PID.TID 0000.0001) //                bi = 000013, bj = 000012
(PID.TID 0000.0001) //       SOUTH: Tile = 000162, Process = 000000, Comm = put
(PID.TID 0000.0001) //                bi = 000012, bj = 000011
(PID.TID 0000.0001) //       NORTH: Tile = 000192, Process = 000000, Comm = put
(PID.TID 0000.0001) //                bi = 000012, bj = 000013
(PID.TID 0000.0001) // Tile number: 000178 (process no. = 000000)
(PID.TID 0000.0001) //        WEST: Tile = 000177, Process = 000000, Comm = put
(PID.TID 0000.0001) //                bi = 000012, bj = 000012
(PID.TID 0000.0001) //        EAST: Tile = 000179, Process = 000000, Comm = put
(PID.TID 0000.0001) //                bi = 000014, bj = 000012
(PID.TID 0000.0001) //       SOUTH: Tile = 000163, Process = 000000, Comm = put
(PID.TID 0000.0001) //                bi = 000013, bj = 000011
(PID.TID 0000.0001) //       NORTH: Tile = 000193, Process = 000000, Comm = put
(PID.TID 0000.0001) //                bi = 000013, bj = 000013
(PID.TID 0000.0001) // Tile number: 000179 (process no. = 000000)
(PID.TID 0000.0001) //        WEST: Tile = 000178, Process = 000000, Comm = put
(PID.TID 0000.0001) //                bi = 000013, bj = 000012
(PID.TID 0000.0001) //        EAST: Tile = 000180, Process = 000000, Comm = put
(PID.TID 0000.0001) //                bi = 000015, bj = 000012
(PID.TID 0000.0001) //       SOUTH: Tile = 000164, Process = 000000, Comm = put
(PID.TID 0000.0001) //                bi = 000014, bj = 000011
(PID.TID 0000.0001) //       NORTH: Tile = 000194, Process = 000000, Comm = put
(PID.TID 0000.0001) //                bi = 000014, bj = 000013
(PID.TID 0000.0001) // Tile number: 000180 (process no. = 000000)
(PID.TID 0000.0001) //        WEST: Tile = 000179, Process = 000000, Comm = put
(PID.TID 0000.0001) //                bi = 000014, bj = 000012
(PID.TID 0000.0001) //        EAST: Tile = 000166, Process = 000000, Comm = put
(PID.TID 0000.0001) //                bi = 000001, bj = 000012
(PID.TID 0000.0001) //       SOUTH: Tile = 000165, Process = 000000, Comm = put
(PID.TID 0000.0001) //                bi = 000015, bj = 000011
(PID.TID 0000.0001) //       NORTH: Tile = 000195, Process = 000000, Comm = put
(PID.TID 0000.0001) //                bi = 000015, bj = 000013
(PID.TID 0000.0001) // Tile number: 000181 (process no. = 000000)
(PID.TID 0000.0001) //        WEST: Tile = 000195, Process = 000000, Comm = put
(PID.TID 0000.0001) //                bi = 000015, bj = 000013
(PID.TID 0000.0001) //        EAST: Tile = 000182, Process = 000000, Comm = put
(PID.TID 0000.0001) //                bi = 000002, bj = 000013
(PID.TID 0000.0001) //       SOUTH: Tile = 000166, Process = 000000, Comm = put
(PID.TID 0000.0001) //                bi = 000001, bj = 000012
(PID.TID 0000.0001) //       NORTH: Tile = 000196, Process = 000000, Comm = put
(PID.TID 0000.0001) //                bi = 000001, bj = 000014
(PID.TID 0000.0001) // Tile number: 000182 (process no. = 000000)
(PID.TID 0000.0001) //        WEST: Tile = 000181, Process = 000000, Comm = put
(PID.TID 0000.0001) //                bi = 000001, bj = 000013
(PID.TID 0000.0001) //        EAST: Tile = 000183, Process = 000000, Comm = put
(PID.TID 0000.0001) //                bi = 000003, bj = 000013
(PID.TID 0000.0001) //       SOUTH: Tile = 000167, Process = 000000, Comm = put
(PID.TID 0000.0001) //                bi = 000002, bj = 000012
(PID.TID 0000.0001) //       NORTH: Tile = 000197, Process = 000000, Comm = put
(PID.TID 0000.0001) //                bi = 000002, bj = 000014
(PID.TID 0000.0001) // Tile number: 000183 (process no. = 000000)
(PID.TID 0000.0001) //        WEST: Tile = 000182, Process = 000000, Comm = put
(PID.TID 0000.0001) //                bi = 000002, bj = 000013
(PID.TID 0000.0001) //        EAST: Tile = 000184, Process = 000000, Comm = put
(PID.TID 0000.0001) //                bi = 000004, bj = 000013
(PID.TID 0000.0001) //       SOUTH: Tile = 000168, Process = 000000, Comm = put
(PID.TID 0000.0001) //                bi = 000003, bj = 000012
(PID.TID 0000.0001) //       NORTH: Tile = 000198, Process = 000000, Comm = put
(PID.TID 0000.0001) //                bi = 000003, bj = 000014
(PID.TID 0000.0001) // Tile number: 000184 (process no. = 000000)
(PID.TID 0000.0001) //        WEST: Tile = 000183, Process = 000000, Comm = put
(PID.TID 0000.0001) //                bi = 000003, bj = 000013
(PID.TID 0000.0001) //        EAST: Tile = 000185, Process = 000000, Comm = put
(PID.TID 0000.0001) //                bi = 000005, bj = 000013
(PID.TID 0000.0001) //       SOUTH: Tile = 000169, Process = 000000, Comm = put
(PID.TID 0000.0001) //                bi = 000004, bj = 000012
(PID.TID 0000.0001) //       NORTH: Tile = 000199, Process = 000000, Comm = put
(PID.TID 0000.0001) //                bi = 000004, bj = 000014
(PID.TID 0000.0001) // Tile number: 000185 (process no. = 000000)
(PID.TID 0000.0001) //        WEST: Tile = 000184, Process = 000000, Comm = put
(PID.TID 0000.0001) //                bi = 000004, bj = 000013
(PID.TID 0000.0001) //        EAST: Tile = 000186, Process = 000000, Comm = put
(PID.TID 0000.0001) //                bi = 000006, bj = 000013
(PID.TID 0000.0001) //       SOUTH: Tile = 000170, Process = 000000, Comm = put
(PID.TID 0000.0001) //                bi = 000005, bj = 000012
(PID.TID 0000.0001) //       NORTH: Tile = 000200, Process = 000000, Comm = put
(PID.TID 0000.0001) //                bi = 000005, bj = 000014
(PID.TID 0000.0001) // Tile number: 000186 (process no. = 000000)
(PID.TID 0000.0001) //        WEST: Tile = 000185, Process = 000000, Comm = put
(PID.TID 0000.0001) //                bi = 000005, bj = 000013
(PID.TID 0000.0001) //        EAST: Tile = 000187, Process = 000000, Comm = put
(PID.TID 0000.0001) //                bi = 000007, bj = 000013
(PID.TID 0000.0001) //       SOUTH: Tile = 000171, Process = 000000, Comm = put
(PID.TID 0000.0001) //                bi = 000006, bj = 000012
(PID.TID 0000.0001) //       NORTH: Tile = 000201, Process = 000000, Comm = put
(PID.TID 0000.0001) //                bi = 000006, bj = 000014
(PID.TID 0000.0001) // Tile number: 000187 (process no. = 000000)
(PID.TID 0000.0001) //        WEST: Tile = 000186, Process = 000000, Comm = put
(PID.TID 0000.0001) //                bi = 000006, bj = 000013
(PID.TID 0000.0001) //        EAST: Tile = 000188, Process = 000000, Comm = put
(PID.TID 0000.0001) //                bi = 000008, bj = 000013
(PID.TID 0000.0001) //       SOUTH: Tile = 000172, Process = 000000, Comm = put
(PID.TID 0000.0001) //                bi = 000007, bj = 000012
(PID.TID 0000.0001) //       NORTH: Tile = 000202, Process = 000000, Comm = put
(PID.TID 0000.0001) //                bi = 000007, bj = 000014
(PID.TID 0000.0001) // Tile number: 000188 (process no. = 000000)
(PID.TID 0000.0001) //        WEST: Tile = 000187, Process = 000000, Comm = put
(PID.TID 0000.0001) //                bi = 000007, bj = 000013
(PID.TID 0000.0001) //        EAST: Tile = 000189, Process = 000000, Comm = put
(PID.TID 0000.0001) //                bi = 000009, bj = 000013
(PID.TID 0000.0001) //       SOUTH: Tile = 000173, Process = 000000, Comm = put
(PID.TID 0000.0001) //                bi = 000008, bj = 000012
(PID.TID 0000.0001) //       NORTH: Tile = 000203, Process = 000000, Comm = put
(PID.TID 0000.0001) //                bi = 000008, bj = 000014
(PID.TID 0000.0001) // Tile number: 000189 (process no. = 000000)
(PID.TID 0000.0001) //        WEST: Tile = 000188, Process = 000000, Comm = put
(PID.TID 0000.0001) //                bi = 000008, bj = 000013
(PID.TID 0000.0001) //        EAST: Tile = 000190, Process = 000000, Comm = put
(PID.TID 0000.0001) //                bi = 000010, bj = 000013
(PID.TID 0000.0001) //       SOUTH: Tile = 000174, Process = 000000, Comm = put
(PID.TID 0000.0001) //                bi = 000009, bj = 000012
(PID.TID 0000.0001) //       NORTH: Tile = 000204, Process = 000000, Comm = put
(PID.TID 0000.0001) //                bi = 000009, bj = 000014
(PID.TID 0000.0001) // Tile number: 000190 (process no. = 000000)
(PID.TID 0000.0001) //        WEST: Tile = 000189, Process = 000000, Comm = put
(PID.TID 0000.0001) //                bi = 000009, bj = 000013
(PID.TID 0000.0001) //        EAST: Tile = 000191, Process = 000000, Comm = put
(PID.TID 0000.0001) //                bi = 000011, bj = 000013
(PID.TID 0000.0001) //       SOUTH: Tile = 000175, Process = 000000, Comm = put
(PID.TID 0000.0001) //                bi = 000010, bj = 000012
(PID.TID 0000.0001) //       NORTH: Tile = 000205, Process = 000000, Comm = put
(PID.TID 0000.0001) //                bi = 000010, bj = 000014
(PID.TID 0000.0001) // Tile number: 000191 (process no. = 000000)
(PID.TID 0000.0001) //        WEST: Tile = 000190, Process = 000000, Comm = put
(PID.TID 0000.0001) //                bi = 000010, bj = 000013
(PID.TID 0000.0001) //        EAST: Tile = 000192, Process = 000000, Comm = put
(PID.TID 0000.0001) //                bi = 000012, bj = 000013
(PID.TID 0000.0001) //       SOUTH: Tile = 000176, Process = 000000, Comm = put
(PID.TID 0000.0001) //                bi = 000011, bj = 000012
(PID.TID 0000.0001) //       NORTH: Tile = 000206, Process = 000000, Comm = put
(PID.TID 0000.0001) //                bi = 000011, bj = 000014
(PID.TID 0000.0001) // Tile number: 000192 (process no. = 000000)
(PID.TID 0000.0001) //        WEST: Tile = 000191, Process = 000000, Comm = put
(PID.TID 0000.0001) //                bi = 000011, bj = 000013
(PID.TID 0000.0001) //        EAST: Tile = 000193, Process = 000000, Comm = put
(PID.TID 0000.0001) //                bi = 000013, bj = 000013
(PID.TID 0000.0001) //       SOUTH: Tile = 000177, Process = 000000, Comm = put
(PID.TID 0000.0001) //                bi = 000012, bj = 000012
(PID.TID 0000.0001) //       NORTH: Tile = 000207, Process = 000000, Comm = put
(PID.TID 0000.0001) //                bi = 000012, bj = 000014
(PID.TID 0000.0001) // Tile number: 000193 (process no. = 000000)
(PID.TID 0000.0001) //        WEST: Tile = 000192, Process = 000000, Comm = put
(PID.TID 0000.0001) //                bi = 000012, bj = 000013
(PID.TID 0000.0001) //        EAST: Tile = 000194, Process = 000000, Comm = put
(PID.TID 0000.0001) //                bi = 000014, bj = 000013
(PID.TID 0000.0001) //       SOUTH: Tile = 000178, Process = 000000, Comm = put
(PID.TID 0000.0001) //                bi = 000013, bj = 000012
(PID.TID 0000.0001) //       NORTH: Tile = 000208, Process = 000000, Comm = put
(PID.TID 0000.0001) //                bi = 000013, bj = 000014
(PID.TID 0000.0001) // Tile number: 000194 (process no. = 000000)
(PID.TID 0000.0001) //        WEST: Tile = 000193, Process = 000000, Comm = put
(PID.TID 0000.0001) //                bi = 000013, bj = 000013
(PID.TID 0000.0001) //        EAST: Tile = 000195, Process = 000000, Comm = put
(PID.TID 0000.0001) //                bi = 000015, bj = 000013
(PID.TID 0000.0001) //       SOUTH: Tile = 000179, Process = 000000, Comm = put
(PID.TID 0000.0001) //                bi = 000014, bj = 000012
(PID.TID 0000.0001) //       NORTH: Tile = 000209, Process = 000000, Comm = put
(PID.TID 0000.0001) //                bi = 000014, bj = 000014
(PID.TID 0000.0001) // Tile number: 000195 (process no. = 000000)
(PID.TID 0000.0001) //        WEST: Tile = 000194, Process = 000000, Comm = put
(PID.TID 0000.0001) //                bi = 000014, bj = 000013
(PID.TID 0000.0001) //        EAST: Tile = 000181, Process = 000000, Comm = put
(PID.TID 0000.0001) //                bi = 000001, bj = 000013
(PID.TID 0000.0001) //       SOUTH: Tile = 000180, Process = 000000, Comm = put
(PID.TID 0000.0001) //                bi = 000015, bj = 000012
(PID.TID 0000.0001) //       NORTH: Tile = 000210, Process = 000000, Comm = put
(PID.TID 0000.0001) //                bi = 000015, bj = 000014
(PID.TID 0000.0001) // Tile number: 000196 (process no. = 000000)
(PID.TID 0000.0001) //        WEST: Tile = 000210, Process = 000000, Comm = put
(PID.TID 0000.0001) //                bi = 000015, bj = 000014
(PID.TID 0000.0001) //        EAST: Tile = 000197, Process = 000000, Comm = put
(PID.TID 0000.0001) //                bi = 000002, bj = 000014
(PID.TID 0000.0001) //       SOUTH: Tile = 000181, Process = 000000, Comm = put
(PID.TID 0000.0001) //                bi = 000001, bj = 000013
(PID.TID 0000.0001) //       NORTH: Tile = 000211, Process = 000000, Comm = put
(PID.TID 0000.0001) //                bi = 000001, bj = 000015
(PID.TID 0000.0001) // Tile number: 000197 (process no. = 000000)
(PID.TID 0000.0001) //        WEST: Tile = 000196, Process = 000000, Comm = put
(PID.TID 0000.0001) //                bi = 000001, bj = 000014
(PID.TID 0000.0001) //        EAST: Tile = 000198, Process = 000000, Comm = put
(PID.TID 0000.0001) //                bi = 000003, bj = 000014
(PID.TID 0000.0001) //       SOUTH: Tile = 000182, Process = 000000, Comm = put
(PID.TID 0000.0001) //                bi = 000002, bj = 000013
(PID.TID 0000.0001) //       NORTH: Tile = 000212, Process = 000000, Comm = put
(PID.TID 0000.0001) //                bi = 000002, bj = 000015
(PID.TID 0000.0001) // Tile number: 000198 (process no. = 000000)
(PID.TID 0000.0001) //        WEST: Tile = 000197, Process = 000000, Comm = put
(PID.TID 0000.0001) //                bi = 000002, bj = 000014
(PID.TID 0000.0001) //        EAST: Tile = 000199, Process = 000000, Comm = put
(PID.TID 0000.0001) //                bi = 000004, bj = 000014
(PID.TID 0000.0001) //       SOUTH: Tile = 000183, Process = 000000, Comm = put
(PID.TID 0000.0001) //                bi = 000003, bj = 000013
(PID.TID 0000.0001) //       NORTH: Tile = 000213, Process = 000000, Comm = put
(PID.TID 0000.0001) //                bi = 000003, bj = 000015
(PID.TID 0000.0001) // Tile number: 000199 (process no. = 000000)
(PID.TID 0000.0001) //        WEST: Tile = 000198, Process = 000000, Comm = put
(PID.TID 0000.0001) //                bi = 000003, bj = 000014
(PID.TID 0000.0001) //        EAST: Tile = 000200, Process = 000000, Comm = put
(PID.TID 0000.0001) //                bi = 000005, bj = 000014
(PID.TID 0000.0001) //       SOUTH: Tile = 000184, Process = 000000, Comm = put
(PID.TID 0000.0001) //                bi = 000004, bj = 000013
(PID.TID 0000.0001) //       NORTH: Tile = 000214, Process = 000000, Comm = put
(PID.TID 0000.0001) //                bi = 000004, bj = 000015
(PID.TID 0000.0001) // Tile number: 000200 (process no. = 000000)
(PID.TID 0000.0001) //        WEST: Tile = 000199, Process = 000000, Comm = put
(PID.TID 0000.0001) //                bi = 000004, bj = 000014
(PID.TID 0000.0001) //        EAST: Tile = 000201, Process = 000000, Comm = put
(PID.TID 0000.0001) //                bi = 000006, bj = 000014
(PID.TID 0000.0001) //       SOUTH: Tile = 000185, Process = 000000, Comm = put
(PID.TID 0000.0001) //                bi = 000005, bj = 000013
(PID.TID 0000.0001) //       NORTH: Tile = 000215, Process = 000000, Comm = put
(PID.TID 0000.0001) //                bi = 000005, bj = 000015
(PID.TID 0000.0001) // Tile number: 000201 (process no. = 000000)
(PID.TID 0000.0001) //        WEST: Tile = 000200, Process = 000000, Comm = put
(PID.TID 0000.0001) //                bi = 000005, bj = 000014
(PID.TID 0000.0001) //        EAST: Tile = 000202, Process = 000000, Comm = put
(PID.TID 0000.0001) //                bi = 000007, bj = 000014
(PID.TID 0000.0001) //       SOUTH: Tile = 000186, Process = 000000, Comm = put
(PID.TID 0000.0001) //                bi = 000006, bj = 000013
(PID.TID 0000.0001) //       NORTH: Tile = 000216, Process = 000000, Comm = put
(PID.TID 0000.0001) //                bi = 000006, bj = 000015
(PID.TID 0000.0001) // Tile number: 000202 (process no. = 000000)
(PID.TID 0000.0001) //        WEST: Tile = 000201, Process = 000000, Comm = put
(PID.TID 0000.0001) //                bi = 000006, bj = 000014
(PID.TID 0000.0001) //        EAST: Tile = 000203, Process = 000000, Comm = put
(PID.TID 0000.0001) //                bi = 000008, bj = 000014
(PID.TID 0000.0001) //       SOUTH: Tile = 000187, Process = 000000, Comm = put
(PID.TID 0000.0001) //                bi = 000007, bj = 000013
(PID.TID 0000.0001) //       NORTH: Tile = 000217, Process = 000000, Comm = put
(PID.TID 0000.0001) //                bi = 000007, bj = 000015
(PID.TID 0000.0001) // Tile number: 000203 (process no. = 000000)
(PID.TID 0000.0001) //        WEST: Tile = 000202, Process = 000000, Comm = put
(PID.TID 0000.0001) //                bi = 000007, bj = 000014
(PID.TID 0000.0001) //        EAST: Tile = 000204, Process = 000000, Comm = put
(PID.TID 0000.0001) //                bi = 000009, bj = 000014
(PID.TID 0000.0001) //       SOUTH: Tile = 000188, Process = 000000, Comm = put
(PID.TID 0000.0001) //                bi = 000008, bj = 000013
(PID.TID 0000.0001) //       NORTH: Tile = 000218, Process = 000000, Comm = put
(PID.TID 0000.0001) //                bi = 000008, bj = 000015
(PID.TID 0000.0001) // Tile number: 000204 (process no. = 000000)
(PID.TID 0000.0001) //        WEST: Tile = 000203, Process = 000000, Comm = put
(PID.TID 0000.0001) //                bi = 000008, bj = 000014
(PID.TID 0000.0001) //        EAST: Tile = 000205, Process = 000000, Comm = put
(PID.TID 0000.0001) //                bi = 000010, bj = 000014
(PID.TID 0000.0001) //       SOUTH: Tile = 000189, Process = 000000, Comm = put
(PID.TID 0000.0001) //                bi = 000009, bj = 000013
(PID.TID 0000.0001) //       NORTH: Tile = 000219, Process = 000000, Comm = put
(PID.TID 0000.0001) //                bi = 000009, bj = 000015
(PID.TID 0000.0001) // Tile number: 000205 (process no. = 000000)
(PID.TID 0000.0001) //        WEST: Tile = 000204, Process = 000000, Comm = put
(PID.TID 0000.0001) //                bi = 000009, bj = 000014
(PID.TID 0000.0001) //        EAST: Tile = 000206, Process = 000000, Comm = put
(PID.TID 0000.0001) //                bi = 000011, bj = 000014
(PID.TID 0000.0001) //       SOUTH: Tile = 000190, Process = 000000, Comm = put
(PID.TID 0000.0001) //                bi = 000010, bj = 000013
(PID.TID 0000.0001) //       NORTH: Tile = 000220, Process = 000000, Comm = put
(PID.TID 0000.0001) //                bi = 000010, bj = 000015
(PID.TID 0000.0001) // Tile number: 000206 (process no. = 000000)
(PID.TID 0000.0001) //        WEST: Tile = 000205, Process = 000000, Comm = put
(PID.TID 0000.0001) //                bi = 000010, bj = 000014
(PID.TID 0000.0001) //        EAST: Tile = 000207, Process = 000000, Comm = put
(PID.TID 0000.0001) //                bi = 000012, bj = 000014
(PID.TID 0000.0001) //       SOUTH: Tile = 000191, Process = 000000, Comm = put
(PID.TID 0000.0001) //                bi = 000011, bj = 000013
(PID.TID 0000.0001) //       NORTH: Tile = 000221, Process = 000000, Comm = put
(PID.TID 0000.0001) //                bi = 000011, bj = 000015
(PID.TID 0000.0001) // Tile number: 000207 (process no. = 000000)
(PID.TID 0000.0001) //        WEST: Tile = 000206, Process = 000000, Comm = put
(PID.TID 0000.0001) //                bi = 000011, bj = 000014
(PID.TID 0000.0001) //        EAST: Tile = 000208, Process = 000000, Comm = put
(PID.TID 0000.0001) //                bi = 000013, bj = 000014
(PID.TID 0000.0001) //       SOUTH: Tile = 000192, Process = 000000, Comm = put
(PID.TID 0000.0001) //                bi = 000012, bj = 000013
(PID.TID 0000.0001) //       NORTH: Tile = 000222, Process = 000000, Comm = put
(PID.TID 0000.0001) //                bi = 000012, bj = 000015
(PID.TID 0000.0001) // Tile number: 000208 (process no. = 000000)
(PID.TID 0000.0001) //        WEST: Tile = 000207, Process = 000000, Comm = put
(PID.TID 0000.0001) //                bi = 000012, bj = 000014
(PID.TID 0000.0001) //        EAST: Tile = 000209, Process = 000000, Comm = put
(PID.TID 0000.0001) //                bi = 000014, bj = 000014
(PID.TID 0000.0001) //       SOUTH: Tile = 000193, Process = 000000, Comm = put
(PID.TID 0000.0001) //                bi = 000013, bj = 000013
(PID.TID 0000.0001) //       NORTH: Tile = 000223, Process = 000000, Comm = put
(PID.TID 0000.0001) //                bi = 000013, bj = 000015
(PID.TID 0000.0001) // Tile number: 000209 (process no. = 000000)
(PID.TID 0000.0001) //        WEST: Tile = 000208, Process = 000000, Comm = put
(PID.TID 0000.0001) //                bi = 000013, bj = 000014
(PID.TID 0000.0001) //        EAST: Tile = 000210, Process = 000000, Comm = put
(PID.TID 0000.0001) //                bi = 000015, bj = 000014
(PID.TID 0000.0001) //       SOUTH: Tile = 000194, Process = 000000, Comm = put
(PID.TID 0000.0001) //                bi = 000014, bj = 000013
(PID.TID 0000.0001) //       NORTH: Tile = 000224, Process = 000000, Comm = put
(PID.TID 0000.0001) //                bi = 000014, bj = 000015
(PID.TID 0000.0001) // Tile number: 000210 (process no. = 000000)
(PID.TID 0000.0001) //        WEST: Tile = 000209, Process = 000000, Comm = put
(PID.TID 0000.0001) //                bi = 000014, bj = 000014
(PID.TID 0000.0001) //        EAST: Tile = 000196, Process = 000000, Comm = put
(PID.TID 0000.0001) //                bi = 000001, bj = 000014
(PID.TID 0000.0001) //       SOUTH: Tile = 000195, Process = 000000, Comm = put
(PID.TID 0000.0001) //                bi = 000015, bj = 000013
(PID.TID 0000.0001) //       NORTH: Tile = 000225, Process = 000000, Comm = put
(PID.TID 0000.0001) //                bi = 000015, bj = 000015
(PID.TID 0000.0001) // Tile number: 000211 (process no. = 000000)
(PID.TID 0000.0001) //        WEST: Tile = 000225, Process = 000000, Comm = put
(PID.TID 0000.0001) //                bi = 000015, bj = 000015
(PID.TID 0000.0001) //        EAST: Tile = 000212, Process = 000000, Comm = put
(PID.TID 0000.0001) //                bi = 000002, bj = 000015
(PID.TID 0000.0001) //       SOUTH: Tile = 000196, Process = 000000, Comm = put
(PID.TID 0000.0001) //                bi = 000001, bj = 000014
(PID.TID 0000.0001) //       NORTH: Tile = 000001, Process = 000000, Comm = put
(PID.TID 0000.0001) //                bi = 000001, bj = 000001
(PID.TID 0000.0001) // Tile number: 000212 (process no. = 000000)
(PID.TID 0000.0001) //        WEST: Tile = 000211, Process = 000000, Comm = put
(PID.TID 0000.0001) //                bi = 000001, bj = 000015
(PID.TID 0000.0001) //        EAST: Tile = 000213, Process = 000000, Comm = put
(PID.TID 0000.0001) //                bi = 000003, bj = 000015
(PID.TID 0000.0001) //       SOUTH: Tile = 000197, Process = 000000, Comm = put
(PID.TID 0000.0001) //                bi = 000002, bj = 000014
(PID.TID 0000.0001) //       NORTH: Tile = 000002, Process = 000000, Comm = put
(PID.TID 0000.0001) //                bi = 000002, bj = 000001
(PID.TID 0000.0001) // Tile number: 000213 (process no. = 000000)
(PID.TID 0000.0001) //        WEST: Tile = 000212, Process = 000000, Comm = put
(PID.TID 0000.0001) //                bi = 000002, bj = 000015
(PID.TID 0000.0001) //        EAST: Tile = 000214, Process = 000000, Comm = put
(PID.TID 0000.0001) //                bi = 000004, bj = 000015
(PID.TID 0000.0001) //       SOUTH: Tile = 000198, Process = 000000, Comm = put
(PID.TID 0000.0001) //                bi = 000003, bj = 000014
(PID.TID 0000.0001) //       NORTH: Tile = 000003, Process = 000000, Comm = put
(PID.TID 0000.0001) //                bi = 000003, bj = 000001
(PID.TID 0000.0001) // Tile number: 000214 (process no. = 000000)
(PID.TID 0000.0001) //        WEST: Tile = 000213, Process = 000000, Comm = put
(PID.TID 0000.0001) //                bi = 000003, bj = 000015
(PID.TID 0000.0001) //        EAST: Tile = 000215, Process = 000000, Comm = put
(PID.TID 0000.0001) //                bi = 000005, bj = 000015
(PID.TID 0000.0001) //       SOUTH: Tile = 000199, Process = 000000, Comm = put
(PID.TID 0000.0001) //                bi = 000004, bj = 000014
(PID.TID 0000.0001) //       NORTH: Tile = 000004, Process = 000000, Comm = put
(PID.TID 0000.0001) //                bi = 000004, bj = 000001
(PID.TID 0000.0001) // Tile number: 000215 (process no. = 000000)
(PID.TID 0000.0001) //        WEST: Tile = 000214, Process = 000000, Comm = put
(PID.TID 0000.0001) //                bi = 000004, bj = 000015
(PID.TID 0000.0001) //        EAST: Tile = 000216, Process = 000000, Comm = put
(PID.TID 0000.0001) //                bi = 000006, bj = 000015
(PID.TID 0000.0001) //       SOUTH: Tile = 000200, Process = 000000, Comm = put
(PID.TID 0000.0001) //                bi = 000005, bj = 000014
(PID.TID 0000.0001) //       NORTH: Tile = 000005, Process = 000000, Comm = put
(PID.TID 0000.0001) //                bi = 000005, bj = 000001
(PID.TID 0000.0001) // Tile number: 000216 (process no. = 000000)
(PID.TID 0000.0001) //        WEST: Tile = 000215, Process = 000000, Comm = put
(PID.TID 0000.0001) //                bi = 000005, bj = 000015
(PID.TID 0000.0001) //        EAST: Tile = 000217, Process = 000000, Comm = put
(PID.TID 0000.0001) //                bi = 000007, bj = 000015
(PID.TID 0000.0001) //       SOUTH: Tile = 000201, Process = 000000, Comm = put
(PID.TID 0000.0001) //                bi = 000006, bj = 000014
(PID.TID 0000.0001) //       NORTH: Tile = 000006, Process = 000000, Comm = put
(PID.TID 0000.0001) //                bi = 000006, bj = 000001
(PID.TID 0000.0001) // Tile number: 000217 (process no. = 000000)
(PID.TID 0000.0001) //        WEST: Tile = 000216, Process = 000000, Comm = put
(PID.TID 0000.0001) //                bi = 000006, bj = 000015
(PID.TID 0000.0001) //        EAST: Tile = 000218, Process = 000000, Comm = put
(PID.TID 0000.0001) //                bi = 000008, bj = 000015
(PID.TID 0000.0001) //       SOUTH: Tile = 000202, Process = 000000, Comm = put
(PID.TID 0000.0001) //                bi = 000007, bj = 000014
(PID.TID 0000.0001) //       NORTH: Tile = 000007, Process = 000000, Comm = put
(PID.TID 0000.0001) //                bi = 000007, bj = 000001
(PID.TID 0000.0001) // Tile number: 000218 (process no. = 000000)
(PID.TID 0000.0001) //        WEST: Tile = 000217, Process = 000000, Comm = put
(PID.TID 0000.0001) //                bi = 000007, bj = 000015
(PID.TID 0000.0001) //        EAST: Tile = 000219, Process = 000000, Comm = put
(PID.TID 0000.0001) //                bi = 000009, bj = 000015
(PID.TID 0000.0001) //       SOUTH: Tile = 000203, Process = 000000, Comm = put
(PID.TID 0000.0001) //                bi = 000008, bj = 000014
(PID.TID 0000.0001) //       NORTH: Tile = 000008, Process = 000000, Comm = put
(PID.TID 0000.0001) //                bi = 000008, bj = 000001
(PID.TID 0000.0001) // Tile number: 000219 (process no. = 000000)
(PID.TID 0000.0001) //        WEST: Tile = 000218, Process = 000000, Comm = put
(PID.TID 0000.0001) //                bi = 000008, bj = 000015
(PID.TID 0000.0001) //        EAST: Tile = 000220, Process = 000000, Comm = put
(PID.TID 0000.0001) //                bi = 000010, bj = 000015
(PID.TID 0000.0001) //       SOUTH: Tile = 000204, Process = 000000, Comm = put
(PID.TID 0000.0001) //                bi = 000009, bj = 000014
(PID.TID 0000.0001) //       NORTH: Tile = 000009, Process = 000000, Comm = put
(PID.TID 0000.0001) //                bi = 000009, bj = 000001
(PID.TID 0000.0001) // Tile number: 000220 (process no. = 000000)
(PID.TID 0000.0001) //        WEST: Tile = 000219, Process = 000000, Comm = put
(PID.TID 0000.0001) //                bi = 000009, bj = 000015
(PID.TID 0000.0001) //        EAST: Tile = 000221, Process = 000000, Comm = put
(PID.TID 0000.0001) //                bi = 000011, bj = 000015
(PID.TID 0000.0001) //       SOUTH: Tile = 000205, Process = 000000, Comm = put
(PID.TID 0000.0001) //                bi = 000010, bj = 000014
(PID.TID 0000.0001) //       NORTH: Tile = 000010, Process = 000000, Comm = put
(PID.TID 0000.0001) //                bi = 000010, bj = 000001
(PID.TID 0000.0001) // Tile number: 000221 (process no. = 000000)
(PID.TID 0000.0001) //        WEST: Tile = 000220, Process = 000000, Comm = put
(PID.TID 0000.0001) //                bi = 000010, bj = 000015
(PID.TID 0000.0001) //        EAST: Tile = 000222, Process = 000000, Comm = put
(PID.TID 0000.0001) //                bi = 000012, bj = 000015
(PID.TID 0000.0001) //       SOUTH: Tile = 000206, Process = 000000, Comm = put
(PID.TID 0000.0001) //                bi = 000011, bj = 000014
(PID.TID 0000.0001) //       NORTH: Tile = 000011, Process = 000000, Comm = put
(PID.TID 0000.0001) //                bi = 000011, bj = 000001
(PID.TID 0000.0001) // Tile number: 000222 (process no. = 000000)
(PID.TID 0000.0001) //        WEST: Tile = 000221, Process = 000000, Comm = put
(PID.TID 0000.0001) //                bi = 000011, bj = 000015
(PID.TID 0000.0001) //        EAST: Tile = 000223, Process = 000000, Comm = put
(PID.TID 0000.0001) //                bi = 000013, bj = 000015
(PID.TID 0000.0001) //       SOUTH: Tile = 000207, Process = 000000, Comm = put
(PID.TID 0000.0001) //                bi = 000012, bj = 000014
(PID.TID 0000.0001) //       NORTH: Tile = 000012, Process = 000000, Comm = put
(PID.TID 0000.0001) //                bi = 000012, bj = 000001
(PID.TID 0000.0001) // Tile number: 000223 (process no. = 000000)
(PID.TID 0000.0001) //        WEST: Tile = 000222, Process = 000000, Comm = put
(PID.TID 0000.0001) //                bi = 000012, bj = 000015
(PID.TID 0000.0001) //        EAST: Tile = 000224, Process = 000000, Comm = put
(PID.TID 0000.0001) //                bi = 000014, bj = 000015
(PID.TID 0000.0001) //       SOUTH: Tile = 000208, Process = 000000, Comm = put
(PID.TID 0000.0001) //                bi = 000013, bj = 000014
(PID.TID 0000.0001) //       NORTH: Tile = 000013, Process = 000000, Comm = put
(PID.TID 0000.0001) //                bi = 000013, bj = 000001
(PID.TID 0000.0001) // Tile number: 000224 (process no. = 000000)
(PID.TID 0000.0001) //        WEST: Tile = 000223, Process = 000000, Comm = put
(PID.TID 0000.0001) //                bi = 000013, bj = 000015
(PID.TID 0000.0001) //        EAST: Tile = 000225, Process = 000000, Comm = put
(PID.TID 0000.0001) //                bi = 000015, bj = 000015
(PID.TID 0000.0001) //       SOUTH: Tile = 000209, Process = 000000, Comm = put
(PID.TID 0000.0001) //                bi = 000014, bj = 000014
(PID.TID 0000.0001) //       NORTH: Tile = 000014, Process = 000000, Comm = put
(PID.TID 0000.0001) //                bi = 000014, bj = 000001
(PID.TID 0000.0001) // Tile number: 000225 (process no. = 000000)
(PID.TID 0000.0001) //        WEST: Tile = 000224, Process = 000000, Comm = put
(PID.TID 0000.0001) //                bi = 000014, bj = 000015
(PID.TID 0000.0001) //        EAST: Tile = 000211, Process = 000000, Comm = put
(PID.TID 0000.0001) //                bi = 000001, bj = 000015
(PID.TID 0000.0001) //       SOUTH: Tile = 000210, Process = 000000, Comm = put
(PID.TID 0000.0001) //                bi = 000015, bj = 000014
(PID.TID 0000.0001) //       NORTH: Tile = 000015, Process = 000000, Comm = put
(PID.TID 0000.0001) //                bi = 000015, bj = 000001
(PID.TID 0000.0001) 
(PID.TID 0000.0001)  INI_PARMS: opening model parameter file "data"
(PID.TID 0000.0001)  OPEN_COPY_DATA_FILE: opening file data
(PID.TID 0000.0001) // =======================================================
(PID.TID 0000.0001) // Parameter file "data"
(PID.TID 0000.0001) // =======================================================
(PID.TID 0000.0001) ># Model parameters
(PID.TID 0000.0001) ># Continuous equation parameters
(PID.TID 0000.0001) > &PARM01
(PID.TID 0000.0001) > viscAh=100.,
(PID.TID 0000.0001) > viscAr=1.E-5,
(PID.TID 0000.0001) > no_slip_sides=.FALSE.,
(PID.TID 0000.0001) > no_slip_bottom=.FALSE.,
(PID.TID 0000.0001) > diffKhT=100.,
(PID.TID 0000.0001) > diffKrT=1.E-5,
(PID.TID 0000.0001) > diffKhS=100.,
(PID.TID 0000.0001) > diffKrS=1.E-5,
(PID.TID 0000.0001) > ivdc_kappa=1.,
(PID.TID 0000.0001) > implicitDiffusion=.TRUE.,
(PID.TID 0000.0001) > eosType='LINEAR',
(PID.TID 0000.0001) > tAlpha=2.E-4,
(PID.TID 0000.0001) > sBeta=7.4E-4,
(PID.TID 0000.0001) > rhoNil=999.8,
(PID.TID 0000.0001) > gravity=9.81,
(PID.TID 0000.0001) > rigidLid=.FALSE.,
(PID.TID 0000.0001) > implicitFreeSurface=.TRUE.,
(PID.TID 0000.0001) > exactConserv=.TRUE.,
(PID.TID 0000.0001) > saltStepping=.TRUE.,
(PID.TID 0000.0001) > readBinaryPrec = 64,
(PID.TID 0000.0001) > writeBinaryPrec = 64,
(PID.TID 0000.0001) > tRef=16.6, 16.6, 16.6, 16.5, 16.5, 16.5, 16.5, 16.5, 16.5,
(PID.TID 0000.0001) >      16.5, 16.4, 16.4, 16.3, 16.1, 15.9, 15.7, 15.3,
(PID.TID 0000.0001) >      14.8, 14.2, 13.5, 12.6, 11.7, 11.0, 10.4, 9.7,
(PID.TID 0000.0001) >      9.2, 8.8, 8.4, 8.0, 7.5, 7.1, 6.7, 6.4,
(PID.TID 0000.0001) >      6.1, 5.8, 5.5, 5.2, 4.8, 4.5, 4.2,
(PID.TID 0000.0001) > sRef=33.6, 33.6, 33.6, 33.6, 33.6, 33.6, 33.6, 33.6, 33.6,
(PID.TID 0000.0001) >      33.6, 33.6, 33.6, 33.6, 33.6, 33.6, 33.6, 33.6,
(PID.TID 0000.0001) >      33.7, 33.7, 33.7, 33.8, 33.8, 33.8, 33.9, 33.9,
(PID.TID 0000.0001) >      34.0, 34.0, 34.1, 34.2, 34.2, 34.2, 34.2, 34.3,
(PID.TID 0000.0001) >      34.3, 34.3, 34.4, 34.4, 34.4, 34.4, 34.5,
(PID.TID 0000.0001) > f0=6.94E-4,
(PID.TID 0000.0001) ># globalFiles=.TRUE.,
(PID.TID 0000.0001) > useSingleCpuIO=.TRUE.,
(PID.TID 0000.0001) > /
(PID.TID 0000.0001) >
(PID.TID 0000.0001) ># Elliptic solver parameters
(PID.TID 0000.0001) > &PARM02
(PID.TID 0000.0001) > cg2dTargetResidual=1.E-7,
(PID.TID 0000.0001) > cg2dMaxIters=1000,
(PID.TID 0000.0001) > /
(PID.TID 0000.0001) >
(PID.TID 0000.0001) ># Time stepping parameters
(PID.TID 0000.0001) > &PARM03
(PID.TID 0000.0001) > startTime=36000.,
(PID.TID 0000.0001) > endTime=72000.,,
(PID.TID 0000.0001) > pickupSuff='ckptA',
(PID.TID 0000.0001) > nIter0=600,
(PID.TID 0000.0001) > deltaT=60.,
(PID.TID 0000.0001) > chkptFreq=43200.,
(PID.TID 0000.0001) > dumpFreq=1200.,
(PID.TID 0000.0001) > monitorFreq=1200.,
(PID.TID 0000.0001) > monitorSelect=2,
(PID.TID 0000.0001) ># periodicExternalForcing=.TRUE.,
(PID.TID 0000.0001) ># externForcingPeriod=600.,
(PID.TID 0000.0001) ># externForcingCycle=36000,
(PID.TID 0000.0001) > /
(PID.TID 0000.0001) >
(PID.TID 0000.0001) ># Gridding parameters
(PID.TID 0000.0001) > &PARM04
(PID.TID 0000.0001) ># usingSphericalPolarGrid=.TRUE.,
(PID.TID 0000.0001) > usingCartesianGrid=.TRUE.,
(PID.TID 0000.0001) > xgOrigin=-238E3,
(PID.TID 0000.0001) > ygOrigin=-62E3,
(PID.TID 0000.0001) > delR=2.0, 2.2, 2.4, 2.7, 3.0, 3.3, 3.6, 4.0, 4.4,
(PID.TID 0000.0001) >      4.9, 5.4, 6.0, 6.6, 7.3, 8.0, 8.9, 9.8,
(PID.TID 0000.0001) >      10.8, 12.0, 13.2, 14.6, 16.1, 17.8, 19.7, 21.7,
(PID.TID 0000.0001) >      24.0, 26.5, 29.3, 32.3, 35.7, 39.4, 43.6, 48.1,
(PID.TID 0000.0001) >      53.1, 58.7, 64.8, 71.6, 79.1, 87.1, 96.3,
(PID.TID 0000.0001) > delYFile = '../input/bahia_01_noShelf_dy.bin',
(PID.TID 0000.0001) > delXFile = '../input/bahia_01_noShelf_dx.bin',
(PID.TID 0000.0001) > /
(PID.TID 0000.0001) >
(PID.TID 0000.0001) > &PARM05
(PID.TID 0000.0001) > bathyFile='../input/bahia_01_noShelf_bat.bin',
(PID.TID 0000.0001) ># meridWindFile='../input/merid_halfgauss2p5hr_240x180.bin',
(PID.TID 0000.0001) ># hydrogThetaFile='../input/feb_temp_40zlev_240x180.bin',
(PID.TID 0000.0001) ># hydrogSaltFile='../input/feb_salt_40zlev_240x180.bin',
(PID.TID 0000.0001) > /
(PID.TID 0000.0001) >
(PID.TID 0000.0001) 
(PID.TID 0000.0001)  INI_PARMS ; starts to read PARM01
(PID.TID 0000.0001)  INI_PARMS ; read PARM01 : OK
(PID.TID 0000.0001)  INI_PARMS ; starts to read PARM02
(PID.TID 0000.0001)  INI_PARMS ; read PARM02 : OK
(PID.TID 0000.0001)  INI_PARMS ; starts to read PARM03
(PID.TID 0000.0001)  INI_PARMS ; read PARM03 : OK
(PID.TID 0000.0001)  INI_PARMS ; starts to read PARM04
(PID.TID 0000.0001)  INI_PARMS ; read PARM04 : OK
(PID.TID 0000.0001)  INI_PARMS ; starts to read PARM05
(PID.TID 0000.0001)  INI_PARMS ; read PARM05 : OK
(PID.TID 0000.0001)  INI_PARMS: finished reading file "data"
(PID.TID 0000.0001)  PACKAGES_BOOT: opening data.pkg
(PID.TID 0000.0001)  OPEN_COPY_DATA_FILE: opening file data.pkg
(PID.TID 0000.0001) // =======================================================
(PID.TID 0000.0001) // Parameter file "data.pkg"
(PID.TID 0000.0001) // =======================================================
(PID.TID 0000.0001) ># Packages (lines beginning "#" are comments)
(PID.TID 0000.0001) > &PACKAGES
(PID.TID 0000.0001) > useMNC=.TRUE.,
(PID.TID 0000.0001) > useDiagnostics=.FALSE.,
(PID.TID 0000.0001) > useOBCS=.TRUE.,
(PID.TID 0000.0001) > /
(PID.TID 0000.0001) 
(PID.TID 0000.0001)  PACKAGES_BOOT: finished reading data.pkg
(PID.TID 0000.0001)  PACKAGES_BOOT: On/Off package Summary
 --------  pkgs with a standard "usePKG" On/Off switch in "data.pkg":  --------
 pkg/obcs                 compiled   and   used ( useOBCS                  = T )
 pkg/mnc                  compiled   and   used ( useMNC                   = T )
 -------- pkgs without standard "usePKG" On/Off switch in "data.pkg":  --------
 pkg/generic_advdiff      compiled   and   used ( useGAD                   = T )
 pkg/mom_common           compiled   and   used ( momStepping              = T )
 pkg/mom_vecinv           compiled but not used ( +vectorInvariantMomentum = F )
 pkg/mom_fluxform         compiled   and   used ( & not vectorInvariantMom = T )
 pkg/monitor              compiled   and   used ( monitorFreq > 0.         = T )
 pkg/debug                compiled but not used ( debugMode                = F )
 pkg/rw                   compiled   and   used
 pkg/mdsio                compiled   and   used
(PID.TID 0000.0001)  PACKAGES_BOOT: End of package Summary
(PID.TID 0000.0001) 
(PID.TID 0000.0001)  MNC_READPARMS: opening file 'data.mnc'
(PID.TID 0000.0001)  OPEN_COPY_DATA_FILE: opening file data.mnc
(PID.TID 0000.0001) // =======================================================
(PID.TID 0000.0001) // Parameter file "data.mnc"
(PID.TID 0000.0001) // =======================================================
(PID.TID 0000.0001) ># Example "data.mnc" file
(PID.TID 0000.0001) ># Lines beginning "#" are comments
(PID.TID 0000.0001) > &MNC_01
(PID.TID 0000.0001) ># mnc_echo_gvtypes=.FALSE.,
(PID.TID 0000.0001) ># mnc_use_indir=.FALSE.,
(PID.TID 0000.0001) > mnc_use_outdir=.TRUE.,
(PID.TID 0000.0001) >
(PID.TID 0000.0001) >mnc_outdir_str='mnc_',
(PID.TID 0000.0001) >#mnc_outdir_date=.TRUE.,
(PID.TID 0000.0001) > monitor_mnc=.FALSE.,
(PID.TID 0000.0001) >#snapshot_mnc=.FALSE.,
(PID.TID 0000.0001) >#timeave_mnc=.FALSE.,
(PID.TID 0000.0001) > pickup_read_mnc=.FALSE.,
(PID.TID 0000.0001) > pickup_write_mnc=.FALSE.,
(PID.TID 0000.0001) > /
(PID.TID 0000.0001) ># Note: Some systems use / as the
(PID.TID 0000.0001) ># namelist terminator. Other systems
(PID.TID 0000.0001) ># use a & character (as shown here).
(PID.TID 0000.0001) 
(PID.TID 0000.0001)  MNC_READPARMS: finished reading data.mnc
(PID.TID 0000.0001)  OBCS_READPARMS: opening data.obcs
(PID.TID 0000.0001)  OPEN_COPY_DATA_FILE: opening file data.obcs
(PID.TID 0000.0001) // =======================================================
(PID.TID 0000.0001) // Parameter file "data.obcs"
(PID.TID 0000.0001) // =======================================================
(PID.TID 0000.0001) ># Open-boundaries
(PID.TID 0000.0001) > &OBCS_PARM01
(PID.TID 0000.0001) >
(PID.TID 0000.0001) > OB_Jsouth = 240*1,
(PID.TID 0000.0001) > OB_Jnorth = 180*0,
(PID.TID 0000.0001) > useOrlanskiSouth=.TRUE.,
(PID.TID 0000.0001) > useOBCSsponge=.FALSE.,
(PID.TID 0000.0001) > useLinearSponge=.FALSE.,
(PID.TID 0000.0001) > OBCSsponge_Salt=.FALSE.,
(PID.TID 0000.0001) > OBCSsponge_Theta=.FALSE.,
(PID.TID 0000.0001) > useOBCSbalance=.TRUE.,
(PID.TID 0000.0001) > useOBCSprescribe=.FALSE.,
(PID.TID 0000.0001) > OBCS_balanceFacS=1.,
(PID.TID 0000.0001) > OBCS_monitorFreq=1200.,
(PID.TID 0000.0001) > /
(PID.TID 0000.0001) >
(PID.TID 0000.0001) > &OBCS_PARM02
(PID.TID 0000.0001) > cvelTimeScale=2000.0,
(PID.TID 0000.0001) > CMAX=1.0,
(PID.TID 0000.0001) > /
(PID.TID 0000.0001) >
(PID.TID 0000.0001) > &OBCS_PARM03
(PID.TID 0000.0001) > spongeThickness=12,
(PID.TID 0000.0001) > Urelaxobcsinner=600.E0,
(PID.TID 0000.0001) > Vrelaxobcsinner=600.E0,
(PID.TID 0000.0001) > Urelaxobcsbound=90.E0,
(PID.TID 0000.0001) > Vrelaxobcsbound=90.E0,
(PID.TID 0000.0001) > /
(PID.TID 0000.0001) 
(PID.TID 0000.0001)  OBCS_READPARMS: finished reading data.obcs
(PID.TID 0000.0001)  OB_indexUnset = /* unset OB index value (i.e. no OB) */
(PID.TID 0000.0001)                       0
(PID.TID 0000.0001)     ;
(PID.TID 0000.0001)  Northern OB global indices : OB_Jnorth =
(PID.TID 0000.0001)   240 @        0                            /* I =  1:240 */
(PID.TID 0000.0001)  Southern OB global indices : OB_Jsouth =
(PID.TID 0000.0001)   240 @        1                            /* I =  1:240 */
(PID.TID 0000.0001)  Eastern  OB global indices : OB_Ieast =
(PID.TID 0000.0001)   180 @        0                            /* J =  1:180 */
(PID.TID 0000.0001)  Western  OB global indices : OB_Iwest =
(PID.TID 0000.0001)   180 @        0                            /* J =  1:180 */
(PID.TID 0000.0001) 
(PID.TID 0000.0001) SET_PARMS: done
(PID.TID 0000.0001)  MDS_READVEC_LOC: open file: ../input/bahia_01_noShelf_dx.bin
(PID.TID 0000.0001) S/R LOAD_GRID_SPACING: delX loaded from file: ../input/bahia_01_noShelf_dx.bin
(PID.TID 0000.0001)  MDS_READVEC_LOC: open file: ../input/bahia_01_noShelf_dy.bin
(PID.TID 0000.0001) S/R LOAD_GRID_SPACING: delY loaded from file: ../input/bahia_01_noShelf_dy.bin
(PID.TID 0000.0001) Enter INI_VERTICAL_GRID: setInterFDr=    T ; setCenterDr=    F
(PID.TID 0000.0001) %MON XC_max                       =   2.3899580000000E+05
(PID.TID 0000.0001) %MON XC_min                       =  -2.3700420000000E+05
(PID.TID 0000.0001) %MON XC_mean                      =   9.9581583333332E+02
(PID.TID 0000.0001) %MON XC_sd                        =   1.3798310177941E+05
(PID.TID 0000.0001) %MON XG_max                       =   2.3800000000000E+05
(PID.TID 0000.0001) %MON XG_min                       =  -2.3800000000000E+05
(PID.TID 0000.0001) %MON XG_mean                      =  -1.7246714344731E-13
(PID.TID 0000.0001) %MON XG_sd                        =   1.3798310189368E+05
(PID.TID 0000.0001) %MON DXC_max                      =   1.9916500000000E+03
(PID.TID 0000.0001) %MON DXC_min                      =   1.9916000000000E+03
(PID.TID 0000.0001) %MON DXC_mean                     =   1.9916316666667E+03
(PID.TID 0000.0001) %MON DXC_sd                       =   2.4094720491571E-02
(PID.TID 0000.0001) %MON DXF_max                      =   1.9917000000000E+03
(PID.TID 0000.0001) %MON DXF_min                      =   1.9916000000000E+03
(PID.TID 0000.0001) %MON DXF_mean                     =   1.9916316666667E+03
(PID.TID 0000.0001) %MON DXF_sd                       =   4.6517619123582E-02
(PID.TID 0000.0001) %MON DXG_max                      =   1.9917000000000E+03
(PID.TID 0000.0001) %MON DXG_min                      =   1.9916000000000E+03
(PID.TID 0000.0001) %MON DXG_mean                     =   1.9916316666667E+03
(PID.TID 0000.0001) %MON DXG_sd                       =   4.6517619123582E-02
(PID.TID 0000.0001) %MON DXV_max                      =   1.9916500000000E+03
(PID.TID 0000.0001) %MON DXV_min                      =   1.9916000000000E+03
(PID.TID 0000.0001) %MON DXV_mean                     =   1.9916316666667E+03
(PID.TID 0000.0001) %MON DXV_sd                       =   2.4094720491571E-02
(PID.TID 0000.0001) %MON YC_max                       =   3.5817040000000E+05
(PID.TID 0000.0001) %MON YC_min                       =  -6.0829600000000E+04
(PID.TID 0000.0001) %MON YC_mean                      =   1.4867039111111E+05
(PID.TID 0000.0001) %MON YC_sd                        =   1.2162873101808E+05
(PID.TID 0000.0001) %MON YG_max                       =   3.5700000000000E+05
(PID.TID 0000.0001) %MON YG_min                       =  -6.2000000000000E+04
(PID.TID 0000.0001) %MON YG_mean                      =   1.4750000000000E+05
(PID.TID 0000.0001) %MON YG_sd                        =   1.2162873093255E+05
(PID.TID 0000.0001) %MON DYC_max                      =   2.3408000000000E+03
(PID.TID 0000.0001) %MON DYC_min                      =   2.3407500000000E+03
(PID.TID 0000.0001) %MON DYC_mean                     =   2.3407822222222E+03
(PID.TID 0000.0001) %MON DYC_sd                       =   2.3934065809416E-02
(PID.TID 0000.0001) %MON DYF_max                      =   2.3408000000000E+03
(PID.TID 0000.0001) %MON DYF_min                      =   2.3407000000000E+03
(PID.TID 0000.0001) %MON DYF_mean                     =   2.3407822222222E+03
(PID.TID 0000.0001) %MON DYF_sd                       =   3.8232556741396E-02
(PID.TID 0000.0001) %MON DYG_max                      =   2.3408000000000E+03
(PID.TID 0000.0001) %MON DYG_min                      =   2.3407000000000E+03
(PID.TID 0000.0001) %MON DYG_mean                     =   2.3407822222222E+03
(PID.TID 0000.0001) %MON DYG_sd                       =   3.8232556741396E-02
(PID.TID 0000.0001) %MON DYU_max                      =   2.3408000000000E+03
(PID.TID 0000.0001) %MON DYU_min                      =   2.3407500000000E+03
(PID.TID 0000.0001) %MON DYU_mean                     =   2.3407822222222E+03
(PID.TID 0000.0001) %MON DYU_sd                       =   2.3934065809416E-02
(PID.TID 0000.0001) %MON RA_max                       =   4.6621713600001E+06
(PID.TID 0000.0001) %MON RA_min                       =   4.6617381199999E+06
(PID.TID 0000.0001) %MON RA_mean                      =   4.6619759985481E+06
(PID.TID 0000.0001) %MON RA_sd                        =   1.3287061343034E+02
(PID.TID 0000.0001) %MON RAW_max                      =   4.6620543200001E+06
(PID.TID 0000.0001) %MON RAW_min                      =   4.6617381199999E+06
(PID.TID 0000.0001) %MON RAW_mean                     =   4.6619759985481E+06
(PID.TID 0000.0001) %MON RAW_sd                       =   9.4758127226225E+01
(PID.TID 0000.0001) %MON RAS_max                      =   4.6621713600001E+06
(PID.TID 0000.0001) %MON RAS_min                      =   4.6618376999999E+06
(PID.TID 0000.0001) %MON RAS_mean                     =   4.6619759985481E+06
(PID.TID 0000.0001) %MON RAS_sd                       =   1.1886436043765E+02
(PID.TID 0000.0001) %MON RAZ_max                      =   4.6620543200001E+06
(PID.TID 0000.0001) %MON RAZ_min                      =   4.6618377000000E+06
(PID.TID 0000.0001) %MON RAZ_mean                     =   4.6619759985481E+06
(PID.TID 0000.0001) %MON RAZ_sd                       =   7.3846048951314E+01
(PID.TID 0000.0001) %MON AngleCS_max                  =   1.0000000000000E+00
(PID.TID 0000.0001) %MON AngleCS_min                  =   1.0000000000000E+00
(PID.TID 0000.0001) %MON AngleCS_mean                 =   1.0000000000000E+00
(PID.TID 0000.0001) %MON AngleCS_sd                   =   0.0000000000000E+00
(PID.TID 0000.0001) %MON AngleSN_max                  =   0.0000000000000E+00
(PID.TID 0000.0001) %MON AngleSN_min                  =   0.0000000000000E+00
(PID.TID 0000.0001) %MON AngleSN_mean                 =   0.0000000000000E+00
(PID.TID 0000.0001) %MON AngleSN_sd                   =   0.0000000000000E+00
(PID.TID 0000.0001)  MDS_READ_FIELD: opening global file: ../input/bahia_01_noShelf_bat.bin
(PID.TID 0000.0001) // =======================================================
(PID.TID 0000.0001) // Field Model R_low (ini_masks_etc)
(PID.TID 0000.0001) // CMIN =         -1.000000000000000E+03
(PID.TID 0000.0001) // CMAX =         -2.000000000000000E+00
(PID.TID 0000.0001) // CINT =          3.696296296296296E+01
(PID.TID 0000.0001) // SYMBOLS (CMIN->CMAX): -abcdefghijklmnopqrstuvwxyz+
(PID.TID 0000.0001) //                  0.0: .
(PID.TID 0000.0001) // RANGE I (Lo:Hi:Step):(    -2:   243:     1)
(PID.TID 0000.0001) // RANGE J (Lo:Hi:Step):(   183:    -2:    -1)
(PID.TID 0000.0001) // RANGE K (Lo:Hi:Step):(   1:   1:   1)
(PID.TID 0000.0001) // =======================================================
(PID.TID 0000.0001) K =   1
(PID.TID 0000.0001) //                I=7       I=17      I=21      I=31      I=35      I=45      I=49      I=59      I=63      I=73      I=83      I=87      I=97      I=101     I=111     I=115     I=125     I=129     I=139     I=143     I=153     I=163     I=167     I=177     I=181     I=191     I=195     I=205     I=209     I=219     I=223     I=233     I=243
(PID.TID 0000.0001) // |--J--|210123456|890123456|894567890|234567890|234501234|678901234|678901678|012345678|012345672|456789012|456789012|890123456|890123456|894567890|234567890|234501234|678901234|678901678|012345678|012345672|456789012|456789012|890123456|890123456|894567890|234567890|234501234|678901234|678901678|012345678|012345672|456789012|456789012|
(PID.TID 0000.0001) //    183 ------------------------------------------------------------------------------------------------------------------------------------------------------------------------------------------------------------------------------------------------------------------------------------------------------------------------------------------
(PID.TID 0000.0001) //    182 ------------------------------------------------------------------------------------------------------------------------------------------------------------------------------------------------------------------------------------------------------------------------------------------------------------------------------------------
(PID.TID 0000.0001) //    181 ------------------------------------------------------------------------------------------------------------------------------------------------------------------------------------------------------------------------------------------------------------------------------------------------------------------------------------------
(PID.TID 0000.0001) //    180 ..........................................................................................................................................................................................................................................................................................................................................
(PID.TID 0000.0001) //    179 .....................................................................................................................................................+++++.++++++++++++++++++++.+++++.....................................................................................................................................................
(PID.TID 0000.0001) //    178 ................................................................................................................................................++++++++++++++++++++++++++++++++++++++++++................................................................................................................................................
(PID.TID 0000.0001) //    177 .............................................................................................................................................++++++++++++++++++++++++++++++++++++++++++++++++.............................................................................................................................................
(PID.TID 0000.0001) //    176 ..........................................................................................................................................+++++++++++++++++++++++++zzzz+++++++++++++++++++++++++..........................................................................................................................................
(PID.TID 0000.0001) //    175 .................................................................................................................................+++...+++++++++++++zzzzzzzzzzzzzzzzzzzzzzzzzzzzzzzzzz+++++++++++++...+++.................................................................................................................................
(PID.TID 0000.0001) //    174 ...............................................................................................................................+++++.+++++++++++zzzzzzzzzzzzzzzzzzzzzzzzzzzzzzzzzzzzzzzzzz+++++++++++.+++++...............................................................................................................................
(PID.TID 0000.0001) //    173 .............................................................................................................................++++++++++++++++zzzzzzzzzzzzzzzzzzzzzzzzzzzzzzzzzzzzzzzzzzzzzzzz++++++++++++++++.............................................................................................................................
(PID.TID 0000.0001) //    172 ...........................................................................................................................+++++++++++++++zzzzzzzzzzzzzzzzzzzzzzzzzzzzzzzzzzzzzzzzzzzzzzzzzzzzzz+++++++++++++++...........................................................................................................................
(PID.TID 0000.0001) //    171 ..........................................................................................................................++++++++zz++++zzzzzzzzzzzzzzzzzzzzzzzzzzzzzzzzzzzzzzzzzzzzzzzzzzzzzzzzzz++++zz++++++++..........................................................................................................................
(PID.TID 0000.0001) //    170 ........................................................................................................................++++++++zzzz++zzzzzzzzzzzzzzzzzzzzzzzzzzzzzzzzzzzzzzzzzzzzzzzzzzzzzzzzzzzzzz++zzzz++++++++........................................................................................................................
(PID.TID 0000.0001) //    169 .......................................................................................................................+++++++zzzzzzzzzzzzzzzzzzzzzzzzzzzzzzzzzzyyyyyyyyyyzzzzzzzzzzzzzzzzzzzzzzzzzzzzzzzzzz+++++++.......................................................................................................................
(PID.TID 0000.0001) //    168 .....................................................................................................................+++++++zzzzzzzzzzzzzzzzzzzzzzzzyyyyyyyyyyyyyyyyyyyyyyyyyyyyyyyyyyzzzzzzzzzzzzzzzzzzzzzzzz+++++++.....................................................................................................................
(PID.TID 0000.0001) //    167 ....................................................................................................................++++++zzzzzzzzzzzzzzzzzzzzzzyyyyyyyyyyyyyyyyyyyyyyyyyyyyyyyyyyyyyyyyyyzzzzzzzzzzzzzzzzzzzzzz++++++....................................................................................................................
(PID.TID 0000.0001) //    166 .............................................................................................................+.....++++++zzzzzzzzzzzzzzzzzzzzyyyyyyyyyyyyyyyyyyyyyyyyyyyyyyyyyyyyyyyyyyyyyyyyzzzzzzzzzzzzzzzzzzzz++++++.....+.............................................................................................................
(PID.TID 0000.0001) //    171 ..........................................................................................................................++++++++zz++++zzzzzzzzzzzzzzzzzzzzzzzzzzzzzzzzzzzzzzzzzzzzzzzzzzzzzzzzzz++++zz++++++++..........................................................................................................................
(PID.TID 0000.0001) //    170 ........................................................................................................................++++++++zzzz++zzzzzzzzzzzzzzzzzzzzzzzzzzzzzzzzzzzzzzzzzzzzzzzzzzzzzzzzzzzzzz++zzzz++++++++........................................................................................................................
(PID.TID 0000.0001) //    169 .......................................................................................................................+++++++zzzzzzzzzzzzzzzzzzzzzzzzzzzzzzzzzzyyyyyyyyyyzzzzzzzzzzzzzzzzzzzzzzzzzzzzzzzzzz+++++++.......................................................................................................................
(PID.TID 0000.0001) //    168 .....................................................................................................................+++++++zzzzzzzzzzzzzzzzzzzzzzzzyyyyyyyyyyyyyyyyyyyyyyyyyyyyyyyyyyzzzzzzzzzzzzzzzzzzzzzzzz+++++++.....................................................................................................................
(PID.TID 0000.0001) //    167 ....................................................................................................................++++++zzzzzzzzzzzzzzzzzzzzzzyyyyyyyyyyyyyyyyyyyyyyyyyyyyyyyyyyyyyyyyyyzzzzzzzzzzzzzzzzzzzzzz++++++....................................................................................................................
(PID.TID 0000.0001) //    166 .............................................................................................................+.....++++++zzzzzzzzzzzzzzzzzzzzyyyyyyyyyyyyyyyyyyyyyyyyyyyyyyyyyyyyyyyyyyyyyyyyzzzzzzzzzzzzzzzzzzzz++++++.....+.............................................................................................................
(PID.TID 0000.0001) //    165 ............................................................................................................++....++++++zzzzzzzzzzzzzzzzzzzyyyyyyyyyyyyyyyyyyyyyyyyyyyyyyyyyyyyyyyyyyyyyyyyyyyyzzzzzzzzzzzzzzzzzzz++++++....++............................................................................................................
(PID.TID 0000.0001) //    164 ..........................................................................................................++++..++++++zzzzzzzzzzzzzyzzzzzyyyyyyyyyyyyyyyyyyyyyyyyyyyyyyyyyyyyyyyyyyyyyyyyyyyyyyyyzzzzzyzzzzzzzzzzzzz++++++..++++..........................................................................................................
(PID.TID 0000.0001) //    163 .........................................................................................................+++++.++++++zzzzzzzzzzzzyyyzzzyyyyyyyyyyyyyyyyyyyyyyyyyyyyyyyyyyyyyyyyyyyyyyyyyyyyyyyyyyyyzzzyyyzzzzzzzzzzzz++++++.+++++.........................................................................................................
(PID.TID 0000.0001) //    162 ........................................................................................................++++++++++++zzzzzzzzzzzyyyyyzyyyyyyyyyyyyyyyyyyyyyyyyyyyyyyyyyyyyyyyyyyyyyyyyyyyyyyyyyyyyyyyyzyyyyyzzzzzzzzzzz++++++++++++........................................................................................................
(PID.TID 0000.0001) //    161 .......................................................................................................++++++z+++++zzzzzzzzzzzyyyyyyyyyyyyyyyyyyyyyyyyyyyyyyyyyyyyyyyyyyyyyyyyyyyyyyyyyyyyyyyyyyyyyyyyyyyyyyzzzzzzzzzzz+++++z++++++.......................................................................................................
(PID.TID 0000.0001) //    160 .......................................................................................................+++++zz++++zzzzzzzzzzyyyyyyyyyyyyyyyyyyyyyyyyyyyyxxyyyyxxxxxxxxxxxxxxyyyyxxyyyyyyyyyyyyyyyyyyyyyyyyyyyyzzzzzzzzzz++++zz+++++.......................................................................................................
(PID.TID 0000.0001) //    159 ......................................................................................................+++++zzz+++zzzzzzzzzzyyyyyyyyyyyyyyyyyyyyyyyyyxxxxxxxxxxxxxxxxxxxxxxxxxxxxxxxxxxyyyyyyyyyyyyyyyyyyyyyyyyyzzzzzzzzzz+++zzz+++++......................................................................................................
(PID.TID 0000.0001) //    158 .....................................................................................................+++++zzzz++zzzzzzzzzzyyyyyyyyyyyyyyyyyyyyyyyxxxxxxxxxxxxxxxxxxxxxxxxxxxxxxxxxxxxxxxxyyyyyyyyyyyyyyyyyyyyyyyzzzzzzzzzz++zzzz+++++.....................................................................................................
(PID.TID 0000.0001) //    157 ....................................................................................................+++++zzzzz+zzzzzzzzzzyyyyyyyyyyyyyyyyyyyyyxxxxxxxxxxxxxxxxxxxxxxxxxxxxxxxxxxxxxxxxxxxxxxyyyyyyyyyyyyyyyyyyyyyzzzzzzzzzz+zzzzz+++++....................................................................................................
(PID.TID 0000.0001) //    156 ...................................................................................................+++++zzzzzzzzzzzzzzzyyyyyyyyyyyyyyyyyyyyyxxxxxxxxxxxxxxxxxxxxxxxxxxxxxxxxxxxxxxxxxxxxxxxxxxyyyyyyyyyyyyyyyyyyyyyzzzzzzzzzzzzzzz+++++...................................................................................................
(PID.TID 0000.0001) //    155 ..................................................................................................+++++zzzzzzzzzzzzzzzyyyyyyyyyyyyyyyyyyyyyxxxxxxxxxxxxxxxxxxxxxxxxxxxxxxxxxxxxxxxxxxxxxxxxxxxxyyyyyyyyyyyyyyyyyyyyyzzzzzzzzzzzzzzz+++++..................................................................................................
(PID.TID 0000.0001) //    154 ..................................................................................................++++zzzzzzzzzzzzzzzyyyyyyyyyyyyyyxyyyyyxxxxxxxxxxxxxxxxxxxxxxxxxxxxxxxxxxxxxxxxxxxxxxxxxxxxxxxxyyyyyxyyyyyyyyyyyyyyzzzzzzzzzzzzzzz++++..................................................................................................
(PID.TID 0000.0001) //    159 ......................................................................................................+++++zzz+++zzzzzzzzzzyyyyyyyyyyyyyyyyyyyyyyyyyxxxxxxxxxxxxxxxxxxxxxxxxxxxxxxxxxxyyyyyyyyyyyyyyyyyyyyyyyyyzzzzzzzzzz+++zzz+++++......................................................................................................
(PID.TID 0000.0001) //    158 .....................................................................................................+++++zzzz++zzzzzzzzzzyyyyyyyyyyyyyyyyyyyyyyyxxxxxxxxxxxxxxxxxxxxxxxxxxxxxxxxxxxxxxxxyyyyyyyyyyyyyyyyyyyyyyyzzzzzzzzzz++zzzz+++++.....................................................................................................
(PID.TID 0000.0001) //    157 ....................................................................................................+++++zzzzz+zzzzzzzzzzyyyyyyyyyyyyyyyyyyyyyxxxxxxxxxxxxxxxxxxxxxxxxxxxxxxxxxxxxxxxxxxxxxxyyyyyyyyyyyyyyyyyyyyyzzzzzzzzzz+zzzzz+++++....................................................................................................
(PID.TID 0000.0001) //    156 ...................................................................................................+++++zzzzzzzzzzzzzzzyyyyyyyyyyyyyyyyyyyyyxxxxxxxxxxxxxxxxxxxxxxxxxxxxxxxxxxxxxxxxxxxxxxxxxxyyyyyyyyyyyyyyyyyyyyyzzzzzzzzzzzzzzz+++++...................................................................................................
(PID.TID 0000.0001) //    155 ..................................................................................................+++++zzzzzzzzzzzzzzzyyyyyyyyyyyyyyyyyyyyyxxxxxxxxxxxxxxxxxxxxxxxxxxxxxxxxxxxxxxxxxxxxxxxxxxxxyyyyyyyyyyyyyyyyyyyyyzzzzzzzzzzzzzzz+++++..................................................................................................
(PID.TID 0000.0001) //    154 ..................................................................................................++++zzzzzzzzzzzzzzzyyyyyyyyyyyyyyxyyyyyxxxxxxxxxxxxxxxxxxxxxxxxxxxxxxxxxxxxxxxxxxxxxxxxxxxxxxxxyyyyyxyyyyyyyyyyyyyyzzzzzzzzzzzzzzz++++..................................................................................................
(PID.TID 0000.0001) //    153 .................................................................................................+++++zzzzzzzzzzzzzzzyyyyyyyyyyyyxxxyyyxxxxxxxxxxxxxxxxxxxxxxxxxxxxxxxxxxxxxxxxxxxxxxxxxxxxxxxxxxxxyyyxxxyyyyyyyyyyyyzzzzzzzzzzzzzzz+++++.................................................................................................
(PID.TID 0000.0001) //    152 ................................................................................................+++++zzzzzzzzzzzzzzzyyyyyyyyyyyyxxxxyyxxxxxxxxxxxxxxxxxxxxxxxxxxxxxxxxxxxxxxxxxxxxxxxxxxxxxxxxxxxxxxyyxxxxyyyyyyyyyyyyzzzzzzzzzzzzzzz+++++................................................................................................
(PID.TID 0000.0001) //    151 ................................................................................................++++zzzzzzzzzyzzzzzyyyyyyyyyyyyxxxxxyxxxxxxxxxxxxxxxxxxxxxxxxxxxxxxxxxxxxxxxxxxxxxxxxxxxxxxxxxxxxxxxxyxxxxxyyyyyyyyyyyyzzzzzyzzzzzzzzz++++................................................................................................
(PID.TID 0000.0001) //    150 ...............................................................................................+++++zzzzzzzzyyzzzzyyyyyyyyyyyyxxxxxxxxxxxxxxxxxxxxxxxxxxxxxxxxxxxxxxxxxxxxxxxxxxxxxxxxxxxxxxxxxxxxxxxxxxxxxxyyyyyyyyyyyyzzzzyyzzzzzzzz+++++...............................................................................................
(PID.TID 0000.0001) //    149 ...............................................................................................++++zzzzzzzzyyyzzzyyyyyyyyyyyyxxxxxxxxxxxxxxxxxxxxxxxxxxxxxxxxxxxxxxxxxxxxxxxxxxxxxxxxxxxxxxxxxxxxxxxxxxxxxxxxyyyyyyyyyyyyzzzyyyzzzzzzzz++++...............................................................................................
(PID.TID 0000.0001) //    148 ..............................................................................................+++++zzzzzzzzyyyzzzyyyyyyyyyyyxxxxxxxxxxxxxxxxxxxxxxxxxxxxxwxxxxxwwwwwwwwwwwwxxxxxwxxxxxxxxxxxxxxxxxxxxxxxxxxxxxyyyyyyyyyyyzzzyyyzzzzzzzz+++++..............................................................................................
(PID.TID 0000.0001) //    147 ..............................................................................................++++zzzzzzzzyyyyzzyyyyyyyyyyyxxxxxxxxxxxxxxxxxxxxxxxxxxxwwwwxxwwwwwwwwwwwwwwwwwwxxwwwwxxxxxxxxxxxxxxxxxxxxxxxxxxxyyyyyyyyyyyzzyyyyzzzzzzzz++++..............................................................................................
(PID.TID 0000.0001) //    146 .......................................................................................+.....++++zzzzzzzzyyyyyzyyyyyyyyyyyxxxxxxxxxxxxxxxxxxxxxxxxxwwwwwwwwwwwwwwwwwwwwwwwwwwwwwwwwwwwwxxxxxxxxxxxxxxxxxxxxxxxxxyyyyyyyyyyyzyyyyyzzzzzzzz++++.....+.......................................................................................
(PID.TID 0000.0001) //    145 .......................................................................................+.....++++zzzzzzzzyyyyyzyyyyyyyyyyxxxxxxxxxxxxxxxxxxxxxxxxwwwwwwwwwwwwwwwwwwwwwwwwwwwwwwwwwwwwwwwwxxxxxxxxxxxxxxxxxxxxxxxxyyyyyyyyyyzyyyyyzzzzzzzz++++.....+.......................................................................................
(PID.TID 0000.0001) //    144 ......................................................................................++....++++zzzzzzzzyyyyyyyyyyyyyyyyxxxxxxxxxxxxxxxxxxxxxxxxwwwwwwwwwwwwwwwwwwwwwwwwwwwwwwwwwwwwwwwwwwxxxxxxxxxxxxxxxxxxxxxxxxyyyyyyyyyyyyyyyyzzzzzzzz++++....++......................................................................................
(PID.TID 0000.0001) //    143 ......................................................................................++....++++zzzzzzzzyyyyyyyyyyyyyyyyxxxxxxxxxxxxxxxxxxxxxxwwwwwwwwwwwwwwwwwwwwwwwwwwwwwwwwwwwwwwwwwwwwwwxxxxxxxxxxxxxxxxxxxxxxyyyyyyyyyyyyyyyyzzzzzzzz++++....++......................................................................................
(PID.TID 0000.0001) //    142 .....................................................................................+++...+++++zzzzzzzyyyyyyyyyyyyyyyyxxxxxxxxxxxxxxxxxxxxxxwwwwwwwwwwwwwwwwwwwwwwwwwwwwwwwwwwwwwwwwwwwwwwwwxxxxxxxxxxxxxxxxxxxxxxyyyyyyyyyyyyyyyyzzzzzzz+++++...+++.....................................................................................
(PID.TID 0000.0001) //    147 ..............................................................................................++++zzzzzzzzyyyyzzyyyyyyyyyyyxxxxxxxxxxxxxxxxxxxxxxxxxxxwwwwxxwwwwwwwwwwwwwwwwwwxxwwwwxxxxxxxxxxxxxxxxxxxxxxxxxxxyyyyyyyyyyyzzyyyyzzzzzzzz++++..............................................................................................
(PID.TID 0000.0001) //    146 .......................................................................................+.....++++zzzzzzzzyyyyyzyyyyyyyyyyyxxxxxxxxxxxxxxxxxxxxxxxxxwwwwwwwwwwwwwwwwwwwwwwwwwwwwwwwwwwwwxxxxxxxxxxxxxxxxxxxxxxxxxyyyyyyyyyyyzyyyyyzzzzzzzz++++.....+.......................................................................................
(PID.TID 0000.0001) //    145 .......................................................................................+.....++++zzzzzzzzyyyyyzyyyyyyyyyyxxxxxxxxxxxxxxxxxxxxxxxxwwwwwwwwwwwwwwwwwwwwwwwwwwwwwwwwwwwwwwwwxxxxxxxxxxxxxxxxxxxxxxxxyyyyyyyyyyzyyyyyzzzzzzzz++++.....+.......................................................................................
(PID.TID 0000.0001) //    144 ......................................................................................++....++++zzzzzzzzyyyyyyyyyyyyyyyyxxxxxxxxxxxxxxxxxxxxxxxxwwwwwwwwwwwwwwwwwwwwwwwwwwwwwwwwwwwwwwwwwwxxxxxxxxxxxxxxxxxxxxxxxxyyyyyyyyyyyyyyyyzzzzzzzz++++....++......................................................................................
(PID.TID 0000.0001) //    143 ......................................................................................++....++++zzzzzzzzyyyyyyyyyyyyyyyyxxxxxxxxxxxxxxxxxxxxxxwwwwwwwwwwwwwwwwwwwwwwwwwwwwwwwwwwwwwwwwwwwwwwxxxxxxxxxxxxxxxxxxxxxxyyyyyyyyyyyyyyyyzzzzzzzz++++....++......................................................................................
(PID.TID 0000.0001) //    142 .....................................................................................+++...+++++zzzzzzzyyyyyyyyyyyyyyyyxxxxxxxxxxxxxxxxxxxxxxwwwwwwwwwwwwwwwwwwwwwwwwwwwwwwwwwwwwwwwwwwwwwwwwxxxxxxxxxxxxxxxxxxxxxxyyyyyyyyyyyyyyyyzzzzzzz+++++...+++.....................................................................................
(PID.TID 0000.0001) //    141 .....................................................................................+++...++++zzzzzzzzyyyyyyyyyyyyyyyxxxxxxxxxxxxxxxxxxxxxxwwwwwwwwwwwwwwwwwwwwwwwwwwwwwwwwwwwwwwwwwwwwwwwwwwxxxxxxxxxxxxxxxxxxxxxxyyyyyyyyyyyyyyyzzzzzzzz++++...+++.....................................................................................
(PID.TID 0000.0001) //    140 .....................................................................................+++...++++zzzzzzzyyyyyyyyyyyyyyyyxxxxxxxxxxxxxxxxxxxxxwwwwwwwwwwwwwwwwwwwwwwwwwwwwwwwwwwwwwwwwwwwwwwwwwwwwxxxxxxxxxxxxxxxxxxxxxyyyyyyyyyyyyyyyyzzzzzzz++++...+++.....................................................................................
(PID.TID 0000.0001) //    139 ....................................................................................++++..++++zzzzzzzzyyyyyyyyyyyyyyyxxxxxxxxxxxxxxxxxxxxxwwwwwwwwwwwwwwwwwwwwwwwwwwwwwwwwwwwwwwwwwwwwwwwwwwwwwwxxxxxxxxxxxxxxxxxxxxxyyyyyyyyyyyyyyyzzzzzzzz++++..++++....................................................................................
(PID.TID 0000.0001) //    138 ....................................................................................++++..++++zzzzzzzyyyyyyyyyyyyyyyyxxxxxxxxxxxxxxwxxxxxwwwwwwwwwwwwwwwwwwwwwwwwwwwwwwwwwwwwwwwwwwwwwwwwwwwwwwwwxxxxxwxxxxxxxxxxxxxxyyyyyyyyyyyyyyyyzzzzzzz++++..++++....................................................................................
(PID.TID 0000.0001) //    137 ....................................................................................++++..++++zzzzzzzyyyyyyyyyyyyyyyxxxxxxxxxxxxxxwwxxxxwwwwwwwwwwwwwwwwwwwwwwwwwwwwwwwwwwwwwwwwwwwwwwwwwwwwwwwwwwxxxxwwxxxxxxxxxxxxxxyyyyyyyyyyyyyyyzzzzzzz++++..++++....................................................................................
(PID.TID 0000.0001) //    136 ...................................................................................++++z.++++zzzzzzzzyyyyyyyyyyyyyyyxxxxxxxxxxxxxxwwxxxxwwwwwwwwwwwwwwwwwwwwwwwwwwwwwwwwwwwwwwwwwwwwwwwwwwwwwwwwwwxxxxwwxxxxxxxxxxxxxxyyyyyyyyyyyyyyyzzzzzzzz++++.z++++...................................................................................
(PID.TID 0000.0001) //    135 ...................................................................................++++z.++++zzzzzzzyyyyyyyyyyyyyyyyxxxxxxxxxxxxxwwwxxxwwwwwwwwwwwwwwwwwwwwwwwwwwwwwwwwwwwwwwwwwwwwwwwwwwwwwwwwwwwwxxxwwwxxxxxxxxxxxxxyyyyyyyyyyyyyyyyzzzzzzz++++.z++++...................................................................................
(PID.TID 0000.0001) //    134 ...................................................................................++++z.++++zzzzzzzyyyyyyyyyxyyyyyxxxxxxxxxxxxxwwwwxxwwwwwwwwwwwwwwwwwwwwwwwwwwwwwwwwwwwwwwwwwwwwwwwwwwwwwwwwwwwwwwxxwwwwxxxxxxxxxxxxxyyyyyxyyyyyyyyyzzzzzzz++++.z++++...................................................................................
(PID.TID 0000.0001) //    133 ...................................................................................++++z.++++zzzzzzzyyyyyyyyyxyyyyyxxxxxxxxxxxxxwwwwxxwwwwwwwwwwwwwwwwwwwwwwwwwwwwwwwwwwwwwwwwwwwwwwwwwwwwwwwwwwwwwwxxwwwwxxxxxxxxxxxxxyyyyyxyyyyyyyyyzzzzzzz++++.z++++...................................................................................
(PID.TID 0000.0001) //    132 ...................................................................................+++zz.+++zzzzzzzyyyyyyyyyxxyyyyxxxxxxxxxxxxxwwwwwxwwwwwwwwwwwwwwwwwwwwwwwwwwwwwwwwwwwwwwwwwwwwwwwwwwwwwwwwwwwwwwwwxwwwwwxxxxxxxxxxxxxyyyyxxyyyyyyyyyzzzzzzz+++.zz+++...................................................................................
(PID.TID 0000.0001) //    131 ..................................................................................++++zz++++zzzzzzzyyyyyyyyyxxyyyyxxxxxxxxxxxxxwwwwwxwwwwwwwwwwwwwwwwwwwwwwwwwwwwwwwwwwwwwwwwwwwwwwwwwwwwwwwwwwwwwwwwxwwwwwxxxxxxxxxxxxxyyyyxxyyyyyyyyyzzzzzzz++++zz++++..................................................................................
(PID.TID 0000.0001) //    130 ..................................................................................++++zz++++zzzzzzzyyyyyyyyyxxyyyyxxxxxxxxxxxxxwwwwwxwwwwwwwwwwwwwwwwwwwwwwwwwwwwwwwwwwwwwwwwwwwwwwwwwwwwwwwwwwwwwwwwxwwwwwxxxxxxxxxxxxxyyyyxxyyyyyyyyyzzzzzzz++++zz++++..................................................................................
(PID.TID 0000.0001) //    135 ...................................................................................++++z.++++zzzzzzzyyyyyyyyyyyyyyyyxxxxxxxxxxxxxwwwxxxwwwwwwwwwwwwwwwwwwwwwwwwwwwwwwwwwwwwwwwwwwwwwwwwwwwwwwwwwwwwxxxwwwxxxxxxxxxxxxxyyyyyyyyyyyyyyyyzzzzzzz++++.z++++...................................................................................
(PID.TID 0000.0001) //    134 ...................................................................................++++z.++++zzzzzzzyyyyyyyyyxyyyyyxxxxxxxxxxxxxwwwwxxwwwwwwwwwwwwwwwwwwwwwwwwwwwwwwwwwwwwwwwwwwwwwwwwwwwwwwwwwwwwwwxxwwwwxxxxxxxxxxxxxyyyyyxyyyyyyyyyzzzzzzz++++.z++++...................................................................................
(PID.TID 0000.0001) //    133 ...................................................................................++++z.++++zzzzzzzyyyyyyyyyxyyyyyxxxxxxxxxxxxxwwwwxxwwwwwwwwwwwwwwwwwwwwwwwwwwwwwwwwwwwwwwwwwwwwwwwwwwwwwwwwwwwwwwxxwwwwxxxxxxxxxxxxxyyyyyxyyyyyyyyyzzzzzzz++++.z++++...................................................................................
(PID.TID 0000.0001) //    132 ...................................................................................+++zz.+++zzzzzzzyyyyyyyyyxxyyyyxxxxxxxxxxxxxwwwwwxwwwwwwwwwwwwwwwwwwwwwwwwwwwwwwwwwwwwwwwwwwwwwwwwwwwwwwwwwwwwwwwwxwwwwwxxxxxxxxxxxxxyyyyxxyyyyyyyyyzzzzzzz+++.zz+++...................................................................................
(PID.TID 0000.0001) //    131 ..................................................................................++++zz++++zzzzzzzyyyyyyyyyxxyyyyxxxxxxxxxxxxxwwwwwxwwwwwwwwwwwwwwwwwwwwwwwwwwwwwwwwwwwwwwwwwwwwwwwwwwwwwwwwwwwwwwwwxwwwwwxxxxxxxxxxxxxyyyyxxyyyyyyyyyzzzzzzz++++zz++++..................................................................................
(PID.TID 0000.0001) //    130 ..................................................................................++++zz++++zzzzzzzyyyyyyyyyxxyyyyxxxxxxxxxxxxxwwwwwxwwwwwwwwwwwwwwwwwwwwwwwwwwwwwwwwwwwwwwwwwwwwwwwwwwwwwwwwwwwwwwwwxwwwwwxxxxxxxxxxxxxyyyyxxyyyyyyyyyzzzzzzz++++zz++++..................................................................................
(PID.TID 0000.0001) //    129 ..................................................................................++++zz++++zzzzzzzyyyyyyyyyxxyyyyxxxxxxxxxxxxwwwwwwwwwwwwwwwwwwwwwwwwwwwwwwwwwwwvvvvvvvvwwwwwwwwwwwwwwwwwwwwwwwwwwwwwwwwwwwxxxxxxxxxxxxyyyyxxyyyyyyyyyzzzzzzz++++zz++++..................................................................................
(PID.TID 0000.0001) //    128 ..................................................................................++++zz++++zzzzzzzyyyyyyyyyxxyyyyxxxxxxxxxxxxwwwwwwwwwwwwwwwwwwwwwwwwwwwvwwwwwvvvvvvvvvvvvwwwwwvwwwwwwwwwwwwwwwwwwwwwwwwwwwxxxxxxxxxxxxyyyyxxyyyyyyyyyzzzzzzz++++zz++++..................................................................................
(PID.TID 0000.0001) //    127 ..................................................................................++++zz++++zzzzzzzyyyyyyyyxxxyyyxxxxxxxxxxxxxwwwwwwwwwwwwwwwwwwwwwwwwwwvvwwwwvvvvvvvvvvvvvvwwwwvvwwwwwwwwwwwwwwwwwwwwwwwwwwxxxxxxxxxxxxxyyyxxxyyyyyyyyzzzzzzz++++zz++++..................................................................................
(PID.TID 0000.0001) //    126 ..................................................................................++++zz++++zzzzzzyyyyyyyyyxxxyyyxxxxxxxxxxxxwwwwwwwwwwwwwwwwwwwwwwwwwwwvvwwwwvvvvvvvvvvvvvvwwwwvvwwwwwwwwwwwwwwwwwwwwwwwwwwwxxxxxxxxxxxxyyyxxxyyyyyyyyyzzzzzz++++zz++++..................................................................................
(PID.TID 0000.0001) //    125 ..................................................................................+++zzz+++zzzzzzzyyyyyyyyyxxxyyyxxxxxxxxxxxxwwwwwwwwwwwwwwwwwwwwwwwwwwvvvwwwvvvvvvvvvvvvvvvvwwwvvvwwwwwwwwwwwwwwwwwwwwwwwwwwxxxxxxxxxxxxyyyxxxyyyyyyyyyzzzzzzz+++zzz+++..................................................................................
(PID.TID 0000.0001) //    124 ..................................................................................+++zzz+++zzzzzzzyyyyyyyyyxxxyyyxxxxxxxxxxxxwwwwwwwwwwwwwwwwwwwwwwwwwvvvvwwvvvvvvvvvvvvvvvvvvwwvvvvwwwwwwwwwwwwwwwwwwwwwwwwwxxxxxxxxxxxxyyyxxxyyyyyyyyyzzzzzzz+++zzz+++..................................................................................
(PID.TID 0000.0001) //    123 .................................................................................++++zzz+++zzzzzzzyyyyyyyyyxxxyyyxxxxxxxxxxxxwwwwwwwwwwwwwwwwwwwwwwwwwvvvvwwvvvvvvvvvvvvvvvvvvwwvvvvwwwwwwwwwwwwwwwwwwwwwwwwwxxxxxxxxxxxxyyyxxxyyyyyyyyyzzzzzzz+++zzz++++.................................................................................
(PID.TID 0000.0001) //    122 .................................................................................++++zzz+++zzzzzzzyyyyyyyyyxxxyyyxxxxxxxxxxxxwwwwwwwwwwwwwwwwwwwwwwwwwvvvvwwvvvvvvvvvvvvvvvvvvwwvvvvwwwwwwwwwwwwwwwwwwwwwwwwwxxxxxxxxxxxxyyyxxxyyyyyyyyyzzzzzzz+++zzz++++.................................................................................
(PID.TID 0000.0001) //    121 .................................................................................++++zzz+++zzzzzzzyyyyyyyyyxxxyyyxxxxxxxxxxxxwwwwwwwwwwwwwwwwwwwwwwwwwvvvvwwvvvvvvvvvvvvvvvvvvwwvvvvwwwwwwwwwwwwwwwwwwwwwwwwwxxxxxxxxxxxxyyyxxxyyyyyyyyyzzzzzzz+++zzz++++.................................................................................
(PID.TID 0000.0001) //    120 vvvvvvvvvvvvvvvvvvvvvvvvvvvvvvvvvvvvvvvvvvvvvvvvvvvvvvvvvvvvvvvvvvvvvvvvvvvvvvvvvvvvvvvvvvvvvvvvvvvvvvvvvvvvvvvvvvvvvvvvvvvvvvvvvvvvvvvvvvvvvvvvvvvvvvvvvvvvvvvvvvvvvvvvvvvvvvvvvvvvvvvvvvvvvvvvvvvvvvvvvvvvvvvvvvvvvvvvvvvvvvvvvvvvvvvvvvvvvvvvvvvvvvvvvvvvvvvvvvvvvvvvvvvvvvvvvvvvvvvvvvvvvvvvvvvvvvvvvvvvvvvvvvvvvvvvvvvvvvvvvvvvvvvvvv
(PID.TID 0000.0001) //    119 vvvvvvvvvvvvvvvvvvvvvvvvvvvvvvvvvvvvvvvvvvvvvvvvvvvvvvvvvvvvvvvvvvvvvvvvvvvvvvvvvvvvvvvvvvvvvvvvvvvvvvvvvvvvvvvvvvvvvvvvvvvvvvvvvvvvvvvvvvvvvvvvvvvvvvvvvvvvvvvvvvvvvvvvvvvvvvvvvvvvvvvvvvvvvvvvvvvvvvvvvvvvvvvvvvvvvvvvvvvvvvvvvvvvvvvvvvvvvvvvvvvvvvvvvvvvvvvvvvvvvvvvvvvvvvvvvvvvvvvvvvvvvvvvvvvvvvvvvvvvvvvvvvvvvvvvvvvvvvvvvvvvvvvvvv
(PID.TID 0000.0001) //    118 vvvvvvvvvvvvvvvvvvvvvvvvvvvvvvvvvvvvvvvvvvvvvvvvvvvvvvvvvvvvvvvvvvvvvvvvvvvvvvvvvvvvvvvvvvvvvvvvvvvvvvvvvvvvvvvvvvvvvvvvvvvvvvvvvvvvvvvvvvvvvvvvvvvvvvvvvvvvvvvvvvvvvvvvvvvvvvvvvvvvvvvvvvvvvvvvvvvvvvvvvvvvvvvvvvvvvvvvvvvvvvvvvvvvvvvvvvvvvvvvvvvvvvvvvvvvvvvvvvvvvvvvvvvvvvvvvvvvvvvvvvvvvvvvvvvvvvvvvvvvvvvvvvvvvvvvvvvvvvvvvvvvvvvvvv
(PID.TID 0000.0001) //    123 .................................................................................++++zzz+++zzzzzzzyyyyyyyyyxxxyyyxxxxxxxxxxxxwwwwwwwwwwwwwwwwwwwwwwwwwvvvvwwvvvvvvvvvvvvvvvvvvwwvvvvwwwwwwwwwwwwwwwwwwwwwwwwwxxxxxxxxxxxxyyyxxxyyyyyyyyyzzzzzzz+++zzz++++.................................................................................
(PID.TID 0000.0001) //    122 .................................................................................++++zzz+++zzzzzzzyyyyyyyyyxxxyyyxxxxxxxxxxxxwwwwwwwwwwwwwwwwwwwwwwwwwvvvvwwvvvvvvvvvvvvvvvvvvwwvvvvwwwwwwwwwwwwwwwwwwwwwwwwwxxxxxxxxxxxxyyyxxxyyyyyyyyyzzzzzzz+++zzz++++.................................................................................
(PID.TID 0000.0001) //    121 .................................................................................++++zzz+++zzzzzzzyyyyyyyyyxxxyyyxxxxxxxxxxxxwwwwwwwwwwwwwwwwwwwwwwwwwvvvvwwvvvvvvvvvvvvvvvvvvwwvvvvwwwwwwwwwwwwwwwwwwwwwwwwwxxxxxxxxxxxxyyyxxxyyyyyyyyyzzzzzzz+++zzz++++.................................................................................
(PID.TID 0000.0001) //    120 vvvvvvvvvvvvvvvvvvvvvvvvvvvvvvvvvvvvvvvvvvvvvvvvvvvvvvvvvvvvvvvvvvvvvvvvvvvvvvvvvvvvvvvvvvvvvvvvvvvvvvvvvvvvvvvvvvvvvvvvvvvvvvvvvvvvvvvvvvvvvvvvvvvvvvvvvvvvvvvvvvvvvvvvvvvvvvvvvvvvvvvvvvvvvvvvvvvvvvvvvvvvvvvvvvvvvvvvvvvvvvvvvvvvvvvvvvvvvvvvvvvvvvvvvvvvvvvvvvvvvvvvvvvvvvvvvvvvvvvvvvvvvvvvvvvvvvvvvvvvvvvvvvvvvvvvvvvvvvvvvvvvvvvvvv
(PID.TID 0000.0001) //    119 vvvvvvvvvvvvvvvvvvvvvvvvvvvvvvvvvvvvvvvvvvvvvvvvvvvvvvvvvvvvvvvvvvvvvvvvvvvvvvvvvvvvvvvvvvvvvvvvvvvvvvvvvvvvvvvvvvvvvvvvvvvvvvvvvvvvvvvvvvvvvvvvvvvvvvvvvvvvvvvvvvvvvvvvvvvvvvvvvvvvvvvvvvvvvvvvvvvvvvvvvvvvvvvvvvvvvvvvvvvvvvvvvvvvvvvvvvvvvvvvvvvvvvvvvvvvvvvvvvvvvvvvvvvvvvvvvvvvvvvvvvvvvvvvvvvvvvvvvvvvvvvvvvvvvvvvvvvvvvvvvvvvvvvvvv
(PID.TID 0000.0001) //    118 vvvvvvvvvvvvvvvvvvvvvvvvvvvvvvvvvvvvvvvvvvvvvvvvvvvvvvvvvvvvvvvvvvvvvvvvvvvvvvvvvvvvvvvvvvvvvvvvvvvvvvvvvvvvvvvvvvvvvvvvvvvvvvvvvvvvvvvvvvvvvvvvvvvvvvvvvvvvvvvvvvvvvvvvvvvvvvvvvvvvvvvvvvvvvvvvvvvvvvvvvvvvvvvvvvvvvvvvvvvvvvvvvvvvvvvvvvvvvvvvvvvvvvvvvvvvvvvvvvvvvvvvvvvvvvvvvvvvvvvvvvvvvvvvvvvvvvvvvvvvvvvvvvvvvvvvvvvvvvvvvvvvvvvvvv
(PID.TID 0000.0001) //    117 uuuuuuuuuuuuuuuuuuuuuuuuuuuuuuuuuuuuuuuuuuuuuuuuuuuuuuuuuuuuuuuuuuuuuuuuuuuuuuuuuuuuuuuuuuuuuuuuuuuuuuuuuuuuuuuuuuuuuuuuuuuuuuuuuuuuuuuuuuuuuuuuuuuuuuuuuuuuuuuuuuuuuuuuuuuuuuuuuuuuuuuuuuuuuuuuuuuuuuuuuuuuuuuuuuuuuuuuuuuuuuuuuuuuuuuuuuuuuuuuuuuuuuuuuuuuuuuuuuuuuuuuuuuuuuuuuuuuuuuuuuuuuuuuuuuuuuuuuuuuuuuuuuuuuuuuuuuuuuuuuuuuuuuuuu
(PID.TID 0000.0001) //    116 uuuuuuuuuuuuuuuuuuuuuuuuuuuuuuuuuuuuuuuuuuuuuuuuuuuuuuuuuuuuuuuuuuuuuuuuuuuuuuuuuuuuuuuuuuuuuuuuuuuuuuuuuuuuuuuuuuuuuuuuuuuuuuuuuuuuuuuuuuuuuuuuuuuuuuuuuuuuuuuuuuuuuuuuuuuuuuuuuuuuuuuuuuuuuuuuuuuuuuuuuuuuuuuuuuuuuuuuuuuuuuuuuuuuuuuuuuuuuuuuuuuuuuuuuuuuuuuuuuuuuuuuuuuuuuuuuuuuuuuuuuuuuuuuuuuuuuuuuuuuuuuuuuuuuuuuuuuuuuuuuuuuuuuuuu
(PID.TID 0000.0001) //    115 uuuuuuuuuuuuuuuuuuuuuuuuuuuuuuuuuuuuuuuuuuuuuuuuuuuuuuuuuuuuuuuuuuuuuuuuuuuuuuuuuuuuuuuuuuuuuuuuuuuuuuuuuuuuuuuuuuuuuuuuuuuuuuuuuuuuuuuuuuuuuuuuuuuuuuuuuuuuuuuuuuuuuuuuuuuuuuuuuuuuuuuuuuuuuuuuuuuuuuuuuuuuuuuuuuuuuuuuuuuuuuuuuuuuuuuuuuuuuuuuuuuuuuuuuuuuuuuuuuuuuuuuuuuuuuuuuuuuuuuuuuuuuuuuuuuuuuuuuuuuuuuuuuuuuuuuuuuuuuuuuuuuuuuuuu
(PID.TID 0000.0001) //    114 tttttttttttttttttttttttttttttttttttttttttttttttttttttttttttttttttttttttttttttttttttttttttttttttttttttttttttttttttttttttttttttttttttttttttttttttttttttttttttttttttttttttttttttttttttttttttttttttttttttttttttttttttttttttttttttttttttttttttttttttttttttttttttttttttttttttttttttttttttttttttttttttttttttttttttttttttttttttttttttttttttttttttt
(PID.TID 0000.0001) //    113 tttttttttttttttttttttttttttttttttttttttttttttttttttttttttttttttttttttttttttttttttttttttttttttttttttttttttttttttttttttttttttttttttttttttttttttttttttttttttttttttttttttttttttttttttttttttttttttttttttttttttttttttttttttttttttttttttttttttttttttttttttttttttttttttttttttttttttttttttttttttttttttttttttttttttttttttttttttttttttttttttttttttttt
(PID.TID 0000.0001) //    112 tttttttttttttttttttttttttttttttttttttttttttttttttttttttttttttttttttttttttttttttttttttttttttttttttttttttttttttttttttttttttttttttttttttttttttttttttttttttttttttttttttttttttttttttttttttttttttttttttttttttttttttttttttttttttttttttttttttttttttttttttttttttttttttttttttttttttttttttttttttttttttttttttttttttttttttttttttttttttttttttttttttttttt
(PID.TID 0000.0001) //    111 ssssssssssssssssssssssssssssssssssssssssssssssssssssssssssssssssssssssssssssssssssssssssssssssssssssssssssssssssssssssssssssssssssssssssssssssssssssssssssssssssssssssssssssssssssssssssssssssssssssssssssssssssssssssssssssssssssssssssssssssssssssssssssssssssssssssssssssssssssssssssssssssssssssssssssssssssssssssssssssssssssssssssss
(PID.TID 0000.0001) //    110 ssssssssssssssssssssssssssssssssssssssssssssssssssssssssssssssssssssssssssssssssssssssssssssssssssssssssssssssssssssssssssssssssssssssssssssssssssssssssssssssssssssssssssssssssssssssssssssssssssssssssssssssssssssssssssssssssssssssssssssssssssssssssssssssssssssssssssssssssssssssssssssssssssssssssssssssssssssssssssssssssssssssssss
(PID.TID 0000.0001) //    109 rrrrrrrrrrrrrrrrrrrrrrrrrrrrrrrrrrrrrrrrrrrrrrrrrrrrrrrrrrrrrrrrrrrrrrrrrrrrrrrrrrrrrrrrrrrrrrrrrrrrrrrrrrrrrrrrrrrrrrrrrrrrrrrrrrrrrrrrrrrrrrrrrrrrrrrrrrrrrrrrrrrrrrrrrrrrrrrrrrrrrrrrrrrrrrrrrrrrrrrrrrrrrrrrrrrrrrrrrrrrrrrrrrrrrrrrrrrrrrrrrrrrrrrrrrrrrrrrrrrrrrrrrrrrrrrrrrrrrrrrrrrrrrrrrrrrrrrrrrrrrrrrrrrrrrrrrrrrrrrrrrrrrrrrrr
(PID.TID 0000.0001) //    108 rrrrrrrrrrrrrrrrrrrrrrrrrrrrrrrrrrrrrrrrrrrrrrrrrrrrrrrrrrrrrrrrrrrrrrrrrrrrrrrrrrrrrrrrrrrrrrrrrrrrrrrrrrrrrrrrrrrrrrrrrrrrrrrrrrrrrrrrrrrrrrrrrrrrrrrrrrrrrrrrrrrrrrrrrrrrrrrrrrrrrrrrrrrrrrrrrrrrrrrrrrrrrrrrrrrrrrrrrrrrrrrrrrrrrrrrrrrrrrrrrrrrrrrrrrrrrrrrrrrrrrrrrrrrrrrrrrrrrrrrrrrrrrrrrrrrrrrrrrrrrrrrrrrrrrrrrrrrrrrrrrrrrrrrrr
(PID.TID 0000.0001) //    107 rrrrrrrrrrrrrrrrrrrrrrrrrrrrrrrrrrrrrrrrrrrrrrrrrrrrrrrrrrrrrrrrrrrrrrrrrrrrrrrrrrrrrrrrrrrrrrrrrrrrrrrrrrrrrrrrrrrrrrrrrrrrrrrrrrrrrrrrrrrrrrrrrrrrrrrrrrrrrrrrrrrrrrrrrrrrrrrrrrrrrrrrrrrrrrrrrrrrrrrrrrrrrrrrrrrrrrrrrrrrrrrrrrrrrrrrrrrrrrrrrrrrrrrrrrrrrrrrrrrrrrrrrrrrrrrrrrrrrrrrrrrrrrrrrrrrrrrrrrrrrrrrrrrrrrrrrrrrrrrrrrrrrrrrrr
(PID.TID 0000.0001) //    106 qqqqqqqqqqqqqqqqqqqqqqqqqqqqqqqqqqqqqqqqqqqqqqqqqqqqqqqqqqqqqqqqqqqqqqqqqqqqqqqqqqqqqqqqqqqqqqqqqqqqqqqqqqqqqqqqqqqqqqqqqqqqqqqqqqqqqqqqqqqqqqqqqqqqqqqqqqqqqqqqqqqqqqqqqqqqqqqqqqqqqqqqqqqqqqqqqqqqqqqqqqqqqqqqqqqqqqqqqqqqqqqqqqqqqqqqqqqqqqqqqqqqqqqqqqqqqqqqqqqqqqqqqqqqqqqqqqqqqqqqqqqqqqqqqqqqqqqqqqqqqqqqqqqqqqqqqqqqqqqqqqqqqqqqqq
(PID.TID 0000.0001) //    111 ssssssssssssssssssssssssssssssssssssssssssssssssssssssssssssssssssssssssssssssssssssssssssssssssssssssssssssssssssssssssssssssssssssssssssssssssssssssssssssssssssssssssssssssssssssssssssssssssssssssssssssssssssssssssssssssssssssssssssssssssssssssssssssssssssssssssssssssssssssssssssssssssssssssssssssssssssssssssssssssssssssssssss
(PID.TID 0000.0001) //    110 ssssssssssssssssssssssssssssssssssssssssssssssssssssssssssssssssssssssssssssssssssssssssssssssssssssssssssssssssssssssssssssssssssssssssssssssssssssssssssssssssssssssssssssssssssssssssssssssssssssssssssssssssssssssssssssssssssssssssssssssssssssssssssssssssssssssssssssssssssssssssssssssssssssssssssssssssssssssssssssssssssssssssss
(PID.TID 0000.0001) //    109 rrrrrrrrrrrrrrrrrrrrrrrrrrrrrrrrrrrrrrrrrrrrrrrrrrrrrrrrrrrrrrrrrrrrrrrrrrrrrrrrrrrrrrrrrrrrrrrrrrrrrrrrrrrrrrrrrrrrrrrrrrrrrrrrrrrrrrrrrrrrrrrrrrrrrrrrrrrrrrrrrrrrrrrrrrrrrrrrrrrrrrrrrrrrrrrrrrrrrrrrrrrrrrrrrrrrrrrrrrrrrrrrrrrrrrrrrrrrrrrrrrrrrrrrrrrrrrrrrrrrrrrrrrrrrrrrrrrrrrrrrrrrrrrrrrrrrrrrrrrrrrrrrrrrrrrrrrrrrrrrrrrrrrrrrr
(PID.TID 0000.0001) //    108 rrrrrrrrrrrrrrrrrrrrrrrrrrrrrrrrrrrrrrrrrrrrrrrrrrrrrrrrrrrrrrrrrrrrrrrrrrrrrrrrrrrrrrrrrrrrrrrrrrrrrrrrrrrrrrrrrrrrrrrrrrrrrrrrrrrrrrrrrrrrrrrrrrrrrrrrrrrrrrrrrrrrrrrrrrrrrrrrrrrrrrrrrrrrrrrrrrrrrrrrrrrrrrrrrrrrrrrrrrrrrrrrrrrrrrrrrrrrrrrrrrrrrrrrrrrrrrrrrrrrrrrrrrrrrrrrrrrrrrrrrrrrrrrrrrrrrrrrrrrrrrrrrrrrrrrrrrrrrrrrrrrrrrrrrr
(PID.TID 0000.0001) //    107 rrrrrrrrrrrrrrrrrrrrrrrrrrrrrrrrrrrrrrrrrrrrrrrrrrrrrrrrrrrrrrrrrrrrrrrrrrrrrrrrrrrrrrrrrrrrrrrrrrrrrrrrrrrrrrrrrrrrrrrrrrrrrrrrrrrrrrrrrrrrrrrrrrrrrrrrrrrrrrrrrrrrrrrrrrrrrrrrrrrrrrrrrrrrrrrrrrrrrrrrrrrrrrrrrrrrrrrrrrrrrrrrrrrrrrrrrrrrrrrrrrrrrrrrrrrrrrrrrrrrrrrrrrrrrrrrrrrrrrrrrrrrrrrrrrrrrrrrrrrrrrrrrrrrrrrrrrrrrrrrrrrrrrrrrr
(PID.TID 0000.0001) //    106 qqqqqqqqqqqqqqqqqqqqqqqqqqqqqqqqqqqqqqqqqqqqqqqqqqqqqqqqqqqqqqqqqqqqqqqqqqqqqqqqqqqqqqqqqqqqqqqqqqqqqqqqqqqqqqqqqqqqqqqqqqqqqqqqqqqqqqqqqqqqqqqqqqqqqqqqqqqqqqqqqqqqqqqqqqqqqqqqqqqqqqqqqqqqqqqqqqqqqqqqqqqqqqqqqqqqqqqqqqqqqqqqqqqqqqqqqqqqqqqqqqqqqqqqqqqqqqqqqqqqqqqqqqqqqqqqqqqqqqqqqqqqqqqqqqqqqqqqqqqqqqqqqqqqqqqqqqqqqqqqqqqqqqqqqq
(PID.TID 0000.0001) //    105 qqqqqqqqqqqqqqqqqqqqqqqqqqqqqqqqqqqqqqqqqqqqqqqqqqqqqqqqqqqqqqqqqqqqqqqqqqqqqqqqqqqqqqqqqqqqqqqqqqqqqqqqqqqqqqqqqqqqqqqqqqqqqqqqqqqqqqqqqqqqqqqqqqqqqqqqqqqqqqqqqqqqqqqqqqqqqqqqqqqqqqqqqqqqqqqqqqqqqqqqqqqqqqqqqqqqqqqqqqqqqqqqqqqqqqqqqqqqqqqqqqqqqqqqqqqqqqqqqqqqqqqqqqqqqqqqqqqqqqqqqqqqqqqqqqqqqqqqqqqqqqqqqqqqqqqqqqqqqqqqqqqqqqqqqq
(PID.TID 0000.0001) //    104 qqqqqqqqqqqqqqqqqqqqqqqqqqqqqqqqqqqqqqqqqqqqqqqqqqqqqqqqqqqqqqqqqqqqqqqqqqqqqqqqqqqqqqqqqqqqqqqqqqqqqqqqqqqqqqqqqqqqqqqqqqqqqqqqqqqqqqqqqqqqqqqqqqqqqqqqqqqqqqqqqqqqqqqqqqqqqqqqqqqqqqqqqqqqqqqqqqqqqqqqqqqqqqqqqqqqqqqqqqqqqqqqqqqqqqqqqqqqqqqqqqqqqqqqqqqqqqqqqqqqqqqqqqqqqqqqqqqqqqqqqqqqqqqqqqqqqqqqqqqqqqqqqqqqqqqqqqqqqqqqqqqqqqqqqq
(PID.TID 0000.0001) //    103 pppppppppppppppppppppppppppppppppppppppppppppppppppppppppppppppppppppppppppppppppppppppppppppppppppppppppppppppppppppppppppppppppppppppppppppppppppppppppppppppppppppppppppppppppppppppppppppppppppppppppppppppppppppppppppppppppppppppppppppppppppppppppppppppppppppppppppppppppppppppppppppppppppppppppppppppppppppppppppppppppppppppppp
(PID.TID 0000.0001) //    102 pppppppppppppppppppppppppppppppppppppppppppppppppppppppppppppppppppppppppppppppppppppppppppppppppppppppppppppppppppppppppppppppppppppppppppppppppppppppppppppppppppppppppppppppppppppppppppppppppppppppppppppppppppppppppppppppppppppppppppppppppppppppppppppppppppppppppppppppppppppppppppppppppppppppppppppppppppppppppppppppppppppppppp
(PID.TID 0000.0001) //    101 pppppppppppppppppppppppppppppppppppppppppppppppppppppppppppppppppppppppppppppppppppppppppppppppppppppppppppppppppppppppppppppppppppppppppppppppppppppppppppppppppppppppppppppppppppppppppppppppppppppppppppppppppppppppppppppppppppppppppppppppppppppppppppppppppppppppppppppppppppppppppppppppppppppppppppppppppppppppppppppppppppppppppp
(PID.TID 0000.0001) //    100 oooooooooooooooooooooooooooooooooooooooooooooooooooooooooooooooooooooooooooooooooooooooooooooooooooooooooooooooooooooooooooooooooooooooooooooooooooooooooooooooooooooooooooooooooooooooooooooooooooooooooooooooooooooooooooooooooooooooooooooooooooooooooooooooooooooooooooooooooooooooooooooooooooooooooooooooooooooooooooooooooooooooooo
(PID.TID 0000.0001) //     99 oooooooooooooooooooooooooooooooooooooooooooooooooooooooooooooooooooooooooooooooooooooooooooooooooooooooooooooooooooooooooooooooooooooooooooooooooooooooooooooooooooooooooooooooooooooooooooooooooooooooooooooooooooooooooooooooooooooooooooooooooooooooooooooooooooooooooooooooooooooooooooooooooooooooooooooooooooooooooooooooooooooooooo
(PID.TID 0000.0001) //     98 oooooooooooooooooooooooooooooooooooooooooooooooooooooooooooooooooooooooooooooooooooooooooooooooooooooooooooooooooooooooooooooooooooooooooooooooooooooooooooooooooooooooooooooooooooooooooooooooooooooooooooooooooooooooooooooooooooooooooooooooooooooooooooooooooooooooooooooooooooooooooooooooooooooooooooooooooooooooooooooooooooooooooo
(PID.TID 0000.0001) //     97 oooooooooooooooooooooooooooooooooooooooooooooooooooooooooooooooooooooooooooooooooooooooooooooooooooooooooooooooooooooooooooooooooooooooooooooooooooooooooooooooooooooooooooooooooooooooooooooooooooooooooooooooooooooooooooooooooooooooooooooooooooooooooooooooooooooooooooooooooooooooooooooooooooooooooooooooooooooooooooooooooooooooooo
(PID.TID 0000.0001) //     96 nnnnnnnnnnnnnnnnnnnnnnnnnnnnnnnnnnnnnnnnnnnnnnnnnnnnnnnnnnnnnnnnnnnnnnnnnnnnnnnnnnnnnnnnnnnnnnnnnnnnnnnnnnnnnnnnnnnnnnnnnnnnnnnnnnnnnnnnnnnnnnnnnnnnnnnnnnnnnnnnnnnnnnnnnnnnnnnnnnnnnnnnnnnnnnnnnnnnnnnnnnnnnnnnnnnnnnnnnnnnnnnnnnnnnnnnnnnnnnnnnnnnnnnnnnnnnnnnnnnnnnnnnnnnnnnnnnnnnnnnnnnnnnnnnnnnnnnnnnnnnnnnnnnnnnnnnnnnnnnnnnnnnnnnnn
(PID.TID 0000.0001) //     95 nnnnnnnnnnnnnnnnnnnnnnnnnnnnnnnnnnnnnnnnnnnnnnnnnnnnnnnnnnnnnnnnnnnnnnnnnnnnnnnnnnnnnnnnnnnnnnnnnnnnnnnnnnnnnnnnnnnnnnnnnnnnnnnnnnnnnnnnnnnnnnnnnnnnnnnnnnnnnnnnnnnnnnnnnnnnnnnnnnnnnnnnnnnnnnnnnnnnnnnnnnnnnnnnnnnnnnnnnnnnnnnnnnnnnnnnnnnnnnnnnnnnnnnnnnnnnnnnnnnnnnnnnnnnnnnnnnnnnnnnnnnnnnnnnnnnnnnnnnnnnnnnnnnnnnnnnnnnnnnnnnnnnnnnnn
(PID.TID 0000.0001) //     94 nnnnnnnnnnnnnnnnnnnnnnnnnnnnnnnnnnnnnnnnnnnnnnnnnnnnnnnnnnnnnnnnnnnnnnnnnnnnnnnnnnnnnnnnnnnnnnnnnnnnnnnnnnnnnnnnnnnnnnnnnnnnnnnnnnnnnnnnnnnnnnnnnnnnnnnnnnnnnnnnnnnnnnnnnnnnnnnnnnnnnnnnnnnnnnnnnnnnnnnnnnnnnnnnnnnnnnnnnnnnnnnnnnnnnnnnnnnnnnnnnnnnnnnnnnnnnnnnnnnnnnnnnnnnnnnnnnnnnnnnnnnnnnnnnnnnnnnnnnnnnnnnnnnnnnnnnnnnnnnnnnnnnnnnnn
(PID.TID 0000.0001) //     99 oooooooooooooooooooooooooooooooooooooooooooooooooooooooooooooooooooooooooooooooooooooooooooooooooooooooooooooooooooooooooooooooooooooooooooooooooooooooooooooooooooooooooooooooooooooooooooooooooooooooooooooooooooooooooooooooooooooooooooooooooooooooooooooooooooooooooooooooooooooooooooooooooooooooooooooooooooooooooooooooooooooooooo
(PID.TID 0000.0001) //     98 oooooooooooooooooooooooooooooooooooooooooooooooooooooooooooooooooooooooooooooooooooooooooooooooooooooooooooooooooooooooooooooooooooooooooooooooooooooooooooooooooooooooooooooooooooooooooooooooooooooooooooooooooooooooooooooooooooooooooooooooooooooooooooooooooooooooooooooooooooooooooooooooooooooooooooooooooooooooooooooooooooooooooo
(PID.TID 0000.0001) //     97 oooooooooooooooooooooooooooooooooooooooooooooooooooooooooooooooooooooooooooooooooooooooooooooooooooooooooooooooooooooooooooooooooooooooooooooooooooooooooooooooooooooooooooooooooooooooooooooooooooooooooooooooooooooooooooooooooooooooooooooooooooooooooooooooooooooooooooooooooooooooooooooooooooooooooooooooooooooooooooooooooooooooooo
(PID.TID 0000.0001) //     96 nnnnnnnnnnnnnnnnnnnnnnnnnnnnnnnnnnnnnnnnnnnnnnnnnnnnnnnnnnnnnnnnnnnnnnnnnnnnnnnnnnnnnnnnnnnnnnnnnnnnnnnnnnnnnnnnnnnnnnnnnnnnnnnnnnnnnnnnnnnnnnnnnnnnnnnnnnnnnnnnnnnnnnnnnnnnnnnnnnnnnnnnnnnnnnnnnnnnnnnnnnnnnnnnnnnnnnnnnnnnnnnnnnnnnnnnnnnnnnnnnnnnnnnnnnnnnnnnnnnnnnnnnnnnnnnnnnnnnnnnnnnnnnnnnnnnnnnnnnnnnnnnnnnnnnnnnnnnnnnnnnnnnnnnnn
(PID.TID 0000.0001) //     95 nnnnnnnnnnnnnnnnnnnnnnnnnnnnnnnnnnnnnnnnnnnnnnnnnnnnnnnnnnnnnnnnnnnnnnnnnnnnnnnnnnnnnnnnnnnnnnnnnnnnnnnnnnnnnnnnnnnnnnnnnnnnnnnnnnnnnnnnnnnnnnnnnnnnnnnnnnnnnnnnnnnnnnnnnnnnnnnnnnnnnnnnnnnnnnnnnnnnnnnnnnnnnnnnnnnnnnnnnnnnnnnnnnnnnnnnnnnnnnnnnnnnnnnnnnnnnnnnnnnnnnnnnnnnnnnnnnnnnnnnnnnnnnnnnnnnnnnnnnnnnnnnnnnnnnnnnnnnnnnnnnnnnnnnnn
(PID.TID 0000.0001) //     94 nnnnnnnnnnnnnnnnnnnnnnnnnnnnnnnnnnnnnnnnnnnnnnnnnnnnnnnnnnnnnnnnnnnnnnnnnnnnnnnnnnnnnnnnnnnnnnnnnnnnnnnnnnnnnnnnnnnnnnnnnnnnnnnnnnnnnnnnnnnnnnnnnnnnnnnnnnnnnnnnnnnnnnnnnnnnnnnnnnnnnnnnnnnnnnnnnnnnnnnnnnnnnnnnnnnnnnnnnnnnnnnnnnnnnnnnnnnnnnnnnnnnnnnnnnnnnnnnnnnnnnnnnnnnnnnnnnnnnnnnnnnnnnnnnnnnnnnnnnnnnnnnnnnnnnnnnnnnnnnnnnnnnnnnnn
(PID.TID 0000.0001) //     93 nnnnnnnnnnnnnnnnnnnnnnnnnnnnnnnnnnnnnnnnnnnnnnnnnnnnnnnnnnnnnnnnnnnnnnnnnnnnnnnnnnnnnnnnnnnnnnnnnnnnnnnnnnnnnnnnnnnnnnnnnnnnnnnnnnnnnnnnnnnnnnnnnnnnnnnnnnnnnnnnnnnnnnnnnnnnnnnnnnnnnnnnnnnnnnnnnnnnnnnnnnnnnnnnnnnnnnnnnnnnnnnnnnnnnnnnnnnnnnnnnnnnnnnnnnnnnnnnnnnnnnnnnnnnnnnnnnnnnnnnnnnnnnnnnnnnnnnnnnnnnnnnnnnnnnnnnnnnnnnnnnnnnnnnnn
(PID.TID 0000.0001) //     92 llllllllllllllllllllllllllllllllllllllllllllllllllllllllllllllllllllllllllllllllllllllllllllllllllllllllllllllllllllllllllllllllllllllllllllllllllllllllllllllllllllllllllllllllllllllllllllllllllllllllllllllllllllllllllllllllllllllllllllllllllllllllllllllllllllllllllllllllllllllllllllllllllllllllllllllllllllllllllllllllllllllllll
(PID.TID 0000.0001) //     91 llllllllllllllllllllllllllllllllllllllllllllllllllllllllllllllllllllllllllllllllllllllllllllllllllllllllllllllllllllllllllllllllllllllllllllllllllllllllllllllllllllllllllllllllllllllllllllllllllllllllllllllllllllllllllllllllllllllllllllllllllllllllllllllllllllllllllllllllllllllllllllllllllllllllllllllllllllllllllllllllllllllllll
(PID.TID 0000.0001) //     90 llllllllllllllllllllllllllllllllllllllllllllllllllllllllllllllllllllllllllllllllllllllllllllllllllllllllllllllllllllllllllllllllllllllllllllllllllllllllllllllllllllllllllllllllllllllllllllllllllllllllllllllllllllllllllllllllllllllllllllllllllllllllllllllllllllllllllllllllllllllllllllllllllllllllllllllllllllllllllllllllllllllllll
(PID.TID 0000.0001) //     89 llllllllllllllllllllllllllllllllllllllllllllllllllllllllllllllllllllllllllllllllllllllllllllllllllllllllllllllllllllllllllllllllllllllllllllllllllllllllllllllllllllllllllllllllllllllllllllllllllllllllllllllllllllllllllllllllllllllllllllllllllllllllllllllllllllllllllllllllllllllllllllllllllllllllllllllllllllllllllllllllllllllllll
(PID.TID 0000.0001) //     88 kkkkkkkkkkkkkkkkkkkkkkkkkkkkkkkkkkkkkkkkkkkkkkkkkkkkkkkkkkkkkkkkkkkkkkkkkkkkkkkkkkkkkkkkkkkkkkkkkkkkkkkkkkkkkkkkkkkkkkkkkkkkkkkkkkkkkkkkkkkkkkkkkkkkkkkkkkkkkkkkkkkkkkkkkkkkkkkkkkkkkkkkkkkkkkkkkkkkkkkkkkkkkkkkkkkkkkkkkkkkkkkkkkkkkkkkkkkkkkkkkkkkkkkkkkkkkkkkkkkkkkkkkkkkkkkkkkkkkkkkkkkkkkkkkkkkkkkkkkkkkkkkkkkkkkkkkkkkkkkkkkkkkkkkkk
(PID.TID 0000.0001) //     87 kkkkkkkkkkkkkkkkkkkkkkkkkkkkkkkkkkkkkkkkkkkkkkkkkkkkkkkkkkkkkkkkkkkkkkkkkkkkkkkkkkkkkkkkkkkkkkkkkkkkkkkkkkkkkkkkkkkkkkkkkkkkkkkkkkkkkkkkkkkkkkkkkkkkkkkkkkkkkkkkkkkkkkkkkkkkkkkkkkkkkkkkkkkkkkkkkkkkkkkkkkkkkkkkkkkkkkkkkkkkkkkkkkkkkkkkkkkkkkkkkkkkkkkkkkkkkkkkkkkkkkkkkkkkkkkkkkkkkkkkkkkkkkkkkkkkkkkkkkkkkkkkkkkkkkkkkkkkkkkkkkkkkkkkkk
(PID.TID 0000.0001) //     86 kkkkkkkkkkkkkkkkkkkkkkkkkkkkkkkkkkkkkkkkkkkkkkkkkkkkkkkkkkkkkkkkkkkkkkkkkkkkkkkkkkkkkkkkkkkkkkkkkkkkkkkkkkkkkkkkkkkkkkkkkkkkkkkkkkkkkkkkkkkkkkkkkkkkkkkkkkkkkkkkkkkkkkkkkkkkkkkkkkkkkkkkkkkkkkkkkkkkkkkkkkkkkkkkkkkkkkkkkkkkkkkkkkkkkkkkkkkkkkkkkkkkkkkkkkkkkkkkkkkkkkkkkkkkkkkkkkkkkkkkkkkkkkkkkkkkkkkkkkkkkkkkkkkkkkkkkkkkkkkkkkkkkkkkkk
(PID.TID 0000.0001) //     85 kkkkkkkkkkkkkkkkkkkkkkkkkkkkkkkkkkkkkkkkkkkkkkkkkkkkkkkkkkkkkkkkkkkkkkkkkkkkkkkkkkkkkkkkkkkkkkkkkkkkkkkkkkkkkkkkkkkkkkkkkkkkkkkkkkkkkkkkkkkkkkkkkkkkkkkkkkkkkkkkkkkkkkkkkkkkkkkkkkkkkkkkkkkkkkkkkkkkkkkkkkkkkkkkkkkkkkkkkkkkkkkkkkkkkkkkkkkkkkkkkkkkkkkkkkkkkkkkkkkkkkkkkkkkkkkkkkkkkkkkkkkkkkkkkkkkkkkkkkkkkkkkkkkkkkkkkkkkkkkkkkkkkkkkkk
(PID.TID 0000.0001) //     84 kkkkkkkkkkkkkkkkkkkkkkkkkkkkkkkkkkkkkkkkkkkkkkkkkkkkkkkkkkkkkkkkkkkkkkkkkkkkkkkkkkkkkkkkkkkkkkkkkkkkkkkkkkkkkkkkkkkkkkkkkkkkkkkkkkkkkkkkkkkkkkkkkkkkkkkkkkkkkkkkkkkkkkkkkkkkkkkkkkkkkkkkkkkkkkkkkkkkkkkkkkkkkkkkkkkkkkkkkkkkkkkkkkkkkkkkkkkkkkkkkkkkkkkkkkkkkkkkkkkkkkkkkkkkkkkkkkkkkkkkkkkkkkkkkkkkkkkkkkkkkkkkkkkkkkkkkkkkkkkkkkkkkkkkkk
(PID.TID 0000.0001) //     83 iiiiiiiiiiiiiiiiiiiiiiiiiiiiiiiiiiiiiiiiiiiiiiiiiiiiiiiiiiiiiiiiiiiiiiiiiiiiiiiiiiiiiiiiiiiiiiiiiiiiiiiiiiiiiiiiiiiiiiiiiiiiiiiiiiiiiiiiiiiiiiiiiiiiiiiiiiiiiiiiiiiiiiiiiiiiiiiiiiiiiiiiiiiiiiiiiiiiiiiiiiiiiiiiiiiiiiiiiiiiiiiiiiiiiiiiiiiiiiiiiiiiiiiiiiiiiiiiiiiiiiiiiiiiiiiiiiiiiiiiiiiiiiiiiiiiiiiiiiiiiiiiiiiiiiiiiiiiiiiiiiiiiiiiii
(PID.TID 0000.0001) //     82 iiiiiiiiiiiiiiiiiiiiiiiiiiiiiiiiiiiiiiiiiiiiiiiiiiiiiiiiiiiiiiiiiiiiiiiiiiiiiiiiiiiiiiiiiiiiiiiiiiiiiiiiiiiiiiiiiiiiiiiiiiiiiiiiiiiiiiiiiiiiiiiiiiiiiiiiiiiiiiiiiiiiiiiiiiiiiiiiiiiiiiiiiiiiiiiiiiiiiiiiiiiiiiiiiiiiiiiiiiiiiiiiiiiiiiiiiiiiiiiiiiiiiiiiiiiiiiiiiiiiiiiiiiiiiiiiiiiiiiiiiiiiiiiiiiiiiiiiiiiiiiiiiiiiiiiiiiiiiiiiiiiiiiiiii
(PID.TID 0000.0001) //     87 kkkkkkkkkkkkkkkkkkkkkkkkkkkkkkkkkkkkkkkkkkkkkkkkkkkkkkkkkkkkkkkkkkkkkkkkkkkkkkkkkkkkkkkkkkkkkkkkkkkkkkkkkkkkkkkkkkkkkkkkkkkkkkkkkkkkkkkkkkkkkkkkkkkkkkkkkkkkkkkkkkkkkkkkkkkkkkkkkkkkkkkkkkkkkkkkkkkkkkkkkkkkkkkkkkkkkkkkkkkkkkkkkkkkkkkkkkkkkkkkkkkkkkkkkkkkkkkkkkkkkkkkkkkkkkkkkkkkkkkkkkkkkkkkkkkkkkkkkkkkkkkkkkkkkkkkkkkkkkkkkkkkkkkkkk
(PID.TID 0000.0001) //     86 kkkkkkkkkkkkkkkkkkkkkkkkkkkkkkkkkkkkkkkkkkkkkkkkkkkkkkkkkkkkkkkkkkkkkkkkkkkkkkkkkkkkkkkkkkkkkkkkkkkkkkkkkkkkkkkkkkkkkkkkkkkkkkkkkkkkkkkkkkkkkkkkkkkkkkkkkkkkkkkkkkkkkkkkkkkkkkkkkkkkkkkkkkkkkkkkkkkkkkkkkkkkkkkkkkkkkkkkkkkkkkkkkkkkkkkkkkkkkkkkkkkkkkkkkkkkkkkkkkkkkkkkkkkkkkkkkkkkkkkkkkkkkkkkkkkkkkkkkkkkkkkkkkkkkkkkkkkkkkkkkkkkkkkkkk
(PID.TID 0000.0001) //     85 kkkkkkkkkkkkkkkkkkkkkkkkkkkkkkkkkkkkkkkkkkkkkkkkkkkkkkkkkkkkkkkkkkkkkkkkkkkkkkkkkkkkkkkkkkkkkkkkkkkkkkkkkkkkkkkkkkkkkkkkkkkkkkkkkkkkkkkkkkkkkkkkkkkkkkkkkkkkkkkkkkkkkkkkkkkkkkkkkkkkkkkkkkkkkkkkkkkkkkkkkkkkkkkkkkkkkkkkkkkkkkkkkkkkkkkkkkkkkkkkkkkkkkkkkkkkkkkkkkkkkkkkkkkkkkkkkkkkkkkkkkkkkkkkkkkkkkkkkkkkkkkkkkkkkkkkkkkkkkkkkkkkkkkkkk
(PID.TID 0000.0001) //     84 kkkkkkkkkkkkkkkkkkkkkkkkkkkkkkkkkkkkkkkkkkkkkkkkkkkkkkkkkkkkkkkkkkkkkkkkkkkkkkkkkkkkkkkkkkkkkkkkkkkkkkkkkkkkkkkkkkkkkkkkkkkkkkkkkkkkkkkkkkkkkkkkkkkkkkkkkkkkkkkkkkkkkkkkkkkkkkkkkkkkkkkkkkkkkkkkkkkkkkkkkkkkkkkkkkkkkkkkkkkkkkkkkkkkkkkkkkkkkkkkkkkkkkkkkkkkkkkkkkkkkkkkkkkkkkkkkkkkkkkkkkkkkkkkkkkkkkkkkkkkkkkkkkkkkkkkkkkkkkkkkkkkkkkkkk
(PID.TID 0000.0001) //     83 iiiiiiiiiiiiiiiiiiiiiiiiiiiiiiiiiiiiiiiiiiiiiiiiiiiiiiiiiiiiiiiiiiiiiiiiiiiiiiiiiiiiiiiiiiiiiiiiiiiiiiiiiiiiiiiiiiiiiiiiiiiiiiiiiiiiiiiiiiiiiiiiiiiiiiiiiiiiiiiiiiiiiiiiiiiiiiiiiiiiiiiiiiiiiiiiiiiiiiiiiiiiiiiiiiiiiiiiiiiiiiiiiiiiiiiiiiiiiiiiiiiiiiiiiiiiiiiiiiiiiiiiiiiiiiiiiiiiiiiiiiiiiiiiiiiiiiiiiiiiiiiiiiiiiiiiiiiiiiiiiiiiiiiiii
(PID.TID 0000.0001) //     82 iiiiiiiiiiiiiiiiiiiiiiiiiiiiiiiiiiiiiiiiiiiiiiiiiiiiiiiiiiiiiiiiiiiiiiiiiiiiiiiiiiiiiiiiiiiiiiiiiiiiiiiiiiiiiiiiiiiiiiiiiiiiiiiiiiiiiiiiiiiiiiiiiiiiiiiiiiiiiiiiiiiiiiiiiiiiiiiiiiiiiiiiiiiiiiiiiiiiiiiiiiiiiiiiiiiiiiiiiiiiiiiiiiiiiiiiiiiiiiiiiiiiiiiiiiiiiiiiiiiiiiiiiiiiiiiiiiiiiiiiiiiiiiiiiiiiiiiiiiiiiiiiiiiiiiiiiiiiiiiiiiiiiiiiii
(PID.TID 0000.0001) //     81 iiiiiiiiiiiiiiiiiiiiiiiiiiiiiiiiiiiiiiiiiiiiiiiiiiiiiiiiiiiiiiiiiiiiiiiiiiiiiiiiiiiiiiiiiiiiiiiiiiiiiiiiiiiiiiiiiiiiiiiiiiiiiiiiiiiiiiiiiiiiiiiiiiiiiiiiiiiiiiiiiiiiiiiiiiiiiiiiiiiiiiiiiiiiiiiiiiiiiiiiiiiiiiiiiiiiiiiiiiiiiiiiiiiiiiiiiiiiiiiiiiiiiiiiiiiiiiiiiiiiiiiiiiiiiiiiiiiiiiiiiiiiiiiiiiiiiiiiiiiiiiiiiiiiiiiiiiiiiiiiiiiiiiiiii
(PID.TID 0000.0001) //     80 iiiiiiiiiiiiiiiiiiiiiiiiiiiiiiiiiiiiiiiiiiiiiiiiiiiiiiiiiiiiiiiiiiiiiiiiiiiiiiiiiiiiiiiiiiiiiiiiiiiiiiiiiiiiiiiiiiiiiiiiiiiiiiiiiiiiiiiiiiiiiiiiiiiiiiiiiiiiiiiiiiiiiiiiiiiiiiiiiiiiiiiiiiiiiiiiiiiiiiiiiiiiiiiiiiiiiiiiiiiiiiiiiiiiiiiiiiiiiiiiiiiiiiiiiiiiiiiiiiiiiiiiiiiiiiiiiiiiiiiiiiiiiiiiiiiiiiiiiiiiiiiiiiiiiiiiiiiiiiiiiiiiiiiiii
(PID.TID 0000.0001) //     79 iiiiiiiiiiiiiiiiiiiiiiiiiiiiiiiiiiiiiiiiiiiiiiiiiiiiiiiiiiiiiiiiiiiiiiiiiiiiiiiiiiiiiiiiiiiiiiiiiiiiiiiiiiiiiiiiiiiiiiiiiiiiiiiiiiiiiiiiiiiiiiiiiiiiiiiiiiiiiiiiiiiiiiiiiiiiiiiiiiiiiiiiiiiiiiiiiiiiiiiiiiiiiiiiiiiiiiiiiiiiiiiiiiiiiiiiiiiiiiiiiiiiiiiiiiiiiiiiiiiiiiiiiiiiiiiiiiiiiiiiiiiiiiiiiiiiiiiiiiiiiiiiiiiiiiiiiiiiiiiiiiiiiiiiii
(PID.TID 0000.0001) //     78 iiiiiiiiiiiiiiiiiiiiiiiiiiiiiiiiiiiiiiiiiiiiiiiiiiiiiiiiiiiiiiiiiiiiiiiiiiiiiiiiiiiiiiiiiiiiiiiiiiiiiiiiiiiiiiiiiiiiiiiiiiiiiiiiiiiiiiiiiiiiiiiiiiiiiiiiiiiiiiiiiiiiiiiiiiiiiiiiiiiiiiiiiiiiiiiiiiiiiiiiiiiiiiiiiiiiiiiiiiiiiiiiiiiiiiiiiiiiiiiiiiiiiiiiiiiiiiiiiiiiiiiiiiiiiiiiiiiiiiiiiiiiiiiiiiiiiiiiiiiiiiiiiiiiiiiiiiiiiiiiiiiiiiiiii
(PID.TID 0000.0001) //     77 gggggggggggggggggggggggggggggggggggggggggggggggggggggggggggggggggggggggggggggggggggggggggggggggggggggggggggggggggggggggggggggggggggggggggggggggggggggggggggggggggggggggggggggggggggggggggggggggggggggggggggggggggggggggggggggggggggggggggggggggggggggggggggggggggggggggggggggggggggggggggggggggggggggggggggggggggggggggggggggggggggggggggg
(PID.TID 0000.0001) //     76 gggggggggggggggggggggggggggggggggggggggggggggggggggggggggggggggggggggggggggggggggggggggggggggggggggggggggggggggggggggggggggggggggggggggggggggggggggggggggggggggggggggggggggggggggggggggggggggggggggggggggggggggggggggggggggggggggggggggggggggggggggggggggggggggggggggggggggggggggggggggggggggggggggggggggggggggggggggggggggggggggggggggggg
(PID.TID 0000.0001) //     75 gggggggggggggggggggggggggggggggggggggggggggggggggggggggggggggggggggggggggggggggggggggggggggggggggggggggggggggggggggggggggggggggggggggggggggggggggggggggggggggggggggggggggggggggggggggggggggggggggggggggggggggggggggggggggggggggggggggggggggggggggggggggggggggggggggggggggggggggggggggggggggggggggggggggggggggggggggggggggggggggggggggggggg
(PID.TID 0000.0001) //     74 gggggggggggggggggggggggggggggggggggggggggggggggggggggggggggggggggggggggggggggggggggggggggggggggggggggggggggggggggggggggggggggggggggggggggggggggggggggggggggggggggggggggggggggggggggggggggggggggggggggggggggggggggggggggggggggggggggggggggggggggggggggggggggggggggggggggggggggggggggggggggggggggggggggggggggggggggggggggggggggggggggggggggg
(PID.TID 0000.0001) //     73 gggggggggggggggggggggggggggggggggggggggggggggggggggggggggggggggggggggggggggggggggggggggggggggggggggggggggggggggggggggggggggggggggggggggggggggggggggggggggggggggggggggggggggggggggggggggggggggggggggggggggggggggggggggggggggggggggggggggggggggggggggggggggggggggggggggggggggggggggggggggggggggggggggggggggggggggggggggggggggggggggggggggggg
(PID.TID 0000.0001) //     72 gggggggggggggggggggggggggggggggggggggggggggggggggggggggggggggggggggggggggggggggggggggggggggggggggggggggggggggggggggggggggggggggggggggggggggggggggggggggggggggggggggggggggggggggggggggggggggggggggggggggggggggggggggggggggggggggggggggggggggggggggggggggggggggggggggggggggggggggggggggggggggggggggggggggggggggggggggggggggggggggggggggggggg
(PID.TID 0000.0001) //     71 eeeeeeeeeeeeeeeeeeeeeeeeeeeeeeeeeeeeeeeeeeeeeeeeeeeeeeeeeeeeeeeeeeeeeeeeeeeeeeeeeeeeeeeeeeeeeeeeeeeeeeeeeeeeeeeeeeeeeeeeeeeeeeeeeeeeeeeeeeeeeeeeeeeeeeeeeeeeeeeeeeeeeeeeeeeeeeeeeeeeeeeeeeeeeeeeeeeeeeeeeeeeeeeeeeeeeeeeeeeeeeeeeeeeeeeeeeeeeeeeeeeeeeeeeeeeeeeeeeeeeeeeeeeeeeeeeeeeeeeeeeeeeeeeeeeeeeeeeeeeeeeeeeeeeeeeeeeeeeeeeeeeeeeeee
(PID.TID 0000.0001) //     70 eeeeeeeeeeeeeeeeeeeeeeeeeeeeeeeeeeeeeeeeeeeeeeeeeeeeeeeeeeeeeeeeeeeeeeeeeeeeeeeeeeeeeeeeeeeeeeeeeeeeeeeeeeeeeeeeeeeeeeeeeeeeeeeeeeeeeeeeeeeeeeeeeeeeeeeeeeeeeeeeeeeeeeeeeeeeeeeeeeeeeeeeeeeeeeeeeeeeeeeeeeeeeeeeeeeeeeeeeeeeeeeeeeeeeeeeeeeeeeeeeeeeeeeeeeeeeeeeeeeeeeeeeeeeeeeeeeeeeeeeeeeeeeeeeeeeeeeeeeeeeeeeeeeeeeeeeeeeeeeeeeeeeeeeee
(PID.TID 0000.0001) //     75 gggggggggggggggggggggggggggggggggggggggggggggggggggggggggggggggggggggggggggggggggggggggggggggggggggggggggggggggggggggggggggggggggggggggggggggggggggggggggggggggggggggggggggggggggggggggggggggggggggggggggggggggggggggggggggggggggggggggggggggggggggggggggggggggggggggggggggggggggggggggggggggggggggggggggggggggggggggggggggggggggggggggggg
(PID.TID 0000.0001) //     74 gggggggggggggggggggggggggggggggggggggggggggggggggggggggggggggggggggggggggggggggggggggggggggggggggggggggggggggggggggggggggggggggggggggggggggggggggggggggggggggggggggggggggggggggggggggggggggggggggggggggggggggggggggggggggggggggggggggggggggggggggggggggggggggggggggggggggggggggggggggggggggggggggggggggggggggggggggggggggggggggggggggggggg
(PID.TID 0000.0001) //     73 gggggggggggggggggggggggggggggggggggggggggggggggggggggggggggggggggggggggggggggggggggggggggggggggggggggggggggggggggggggggggggggggggggggggggggggggggggggggggggggggggggggggggggggggggggggggggggggggggggggggggggggggggggggggggggggggggggggggggggggggggggggggggggggggggggggggggggggggggggggggggggggggggggggggggggggggggggggggggggggggggggggggggg
(PID.TID 0000.0001) //     72 gggggggggggggggggggggggggggggggggggggggggggggggggggggggggggggggggggggggggggggggggggggggggggggggggggggggggggggggggggggggggggggggggggggggggggggggggggggggggggggggggggggggggggggggggggggggggggggggggggggggggggggggggggggggggggggggggggggggggggggggggggggggggggggggggggggggggggggggggggggggggggggggggggggggggggggggggggggggggggggggggggggggggg
(PID.TID 0000.0001) //     71 eeeeeeeeeeeeeeeeeeeeeeeeeeeeeeeeeeeeeeeeeeeeeeeeeeeeeeeeeeeeeeeeeeeeeeeeeeeeeeeeeeeeeeeeeeeeeeeeeeeeeeeeeeeeeeeeeeeeeeeeeeeeeeeeeeeeeeeeeeeeeeeeeeeeeeeeeeeeeeeeeeeeeeeeeeeeeeeeeeeeeeeeeeeeeeeeeeeeeeeeeeeeeeeeeeeeeeeeeeeeeeeeeeeeeeeeeeeeeeeeeeeeeeeeeeeeeeeeeeeeeeeeeeeeeeeeeeeeeeeeeeeeeeeeeeeeeeeeeeeeeeeeeeeeeeeeeeeeeeeeeeeeeeeeee
(PID.TID 0000.0001) //     70 eeeeeeeeeeeeeeeeeeeeeeeeeeeeeeeeeeeeeeeeeeeeeeeeeeeeeeeeeeeeeeeeeeeeeeeeeeeeeeeeeeeeeeeeeeeeeeeeeeeeeeeeeeeeeeeeeeeeeeeeeeeeeeeeeeeeeeeeeeeeeeeeeeeeeeeeeeeeeeeeeeeeeeeeeeeeeeeeeeeeeeeeeeeeeeeeeeeeeeeeeeeeeeeeeeeeeeeeeeeeeeeeeeeeeeeeeeeeeeeeeeeeeeeeeeeeeeeeeeeeeeeeeeeeeeeeeeeeeeeeeeeeeeeeeeeeeeeeeeeeeeeeeeeeeeeeeeeeeeeeeeeeeeeeee
(PID.TID 0000.0001) //     69 eeeeeeeeeeeeeeeeeeeeeeeeeeeeeeeeeeeeeeeeeeeeeeeeeeeeeeeeeeeeeeeeeeeeeeeeeeeeeeeeeeeeeeeeeeeeeeeeeeeeeeeeeeeeeeeeeeeeeeeeeeeeeeeeeeeeeeeeeeeeeeeeeeeeeeeeeeeeeeeeeeeeeeeeeeeeeeeeeeeeeeeeeeeeeeeeeeeeeeeeeeeeeeeeeeeeeeeeeeeeeeeeeeeeeeeeeeeeeeeeeeeeeeeeeeeeeeeeeeeeeeeeeeeeeeeeeeeeeeeeeeeeeeeeeeeeeeeeeeeeeeeeeeeeeeeeeeeeeeeeeeeeeeeeee
(PID.TID 0000.0001) //     68 eeeeeeeeeeeeeeeeeeeeeeeeeeeeeeeeeeeeeeeeeeeeeeeeeeeeeeeeeeeeeeeeeeeeeeeeeeeeeeeeeeeeeeeeeeeeeeeeeeeeeeeeeeeeeeeeeeeeeeeeeeeeeeeeeeeeeeeeeeeeeeeeeeeeeeeeeeeeeeeeeeeeeeeeeeeeeeeeeeeeeeeeeeeeeeeeeeeeeeeeeeeeeeeeeeeeeeeeeeeeeeeeeeeeeeeeeeeeeeeeeeeeeeeeeeeeeeeeeeeeeeeeeeeeeeeeeeeeeeeeeeeeeeeeeeeeeeeeeeeeeeeeeeeeeeeeeeeeeeeeeeeeeeeeee
(PID.TID 0000.0001) //     67 eeeeeeeeeeeeeeeeeeeeeeeeeeeeeeeeeeeeeeeeeeeeeeeeeeeeeeeeeeeeeeeeeeeeeeeeeeeeeeeeeeeeeeeeeeeeeeeeeeeeeeeeeeeeeeeeeeeeeeeeeeeeeeeeeeeeeeeeeeeeeeeeeeeeeeeeeeeeeeeeeeeeeeeeeeeeeeeeeeeeeeeeeeeeeeeeeeeeeeeeeeeeeeeeeeeeeeeeeeeeeeeeeeeeeeeeeeeeeeeeeeeeeeeeeeeeeeeeeeeeeeeeeeeeeeeeeeeeeeeeeeeeeeeeeeeeeeeeeeeeeeeeeeeeeeeeeeeeeeeeeeeeeeeeee
(PID.TID 0000.0001) //     66 eeeeeeeeeeeeeeeeeeeeeeeeeeeeeeeeeeeeeeeeeeeeeeeeeeeeeeeeeeeeeeeeeeeeeeeeeeeeeeeeeeeeeeeeeeeeeeeeeeeeeeeeeeeeeeeeeeeeeeeeeeeeeeeeeeeeeeeeeeeeeeeeeeeeeeeeeeeeeeeeeeeeeeeeeeeeeeeeeeeeeeeeeeeeeeeeeeeeeeeeeeeeeeeeeeeeeeeeeeeeeeeeeeeeeeeeeeeeeeeeeeeeeeeeeeeeeeeeeeeeeeeeeeeeeeeeeeeeeeeeeeeeeeeeeeeeeeeeeeeeeeeeeeeeeeeeeeeeeeeeeeeeeeeeee
(PID.TID 0000.0001) //     65 eeeeeeeeeeeeeeeeeeeeeeeeeeeeeeeeeeeeeeeeeeeeeeeeeeeeeeeeeeeeeeeeeeeeeeeeeeeeeeeeeeeeeeeeeeeeeeeeeeeeeeeeeeeeeeeeeeeeeeeeeeeeeeeeeeeeeeeeeeeeeeeeeeeeeeeeeeeeeeeeeeeeeeeeeeeeeeeeeeeeeeeeeeeeeeeeeeeeeeeeeeeeeeeeeeeeeeeeeeeeeeeeeeeeeeeeeeeeeeeeeeeeeeeeeeeeeeeeeeeeeeeeeeeeeeeeeeeeeeeeeeeeeeeeeeeeeeeeeeeeeeeeeeeeeeeeeeeeeeeeeeeeeeeeee
(PID.TID 0000.0001) //     64 cccccccccccccccccccccccccccccccccccccccccccccccccccccccccccccccccccccccccccccccccccccccccccccccccccccccccccccccccccccccccccccccccccccccccccccccccccccccccccccccccccccccccccccccccccccccccccccccccccccccccccccccccccccccccccccccccccccccccccccccccccccccccccccccccccccccccccccccccccccccccccccccccccccccccccccccccccccccccccccccccccccccccc
(PID.TID 0000.0001) //     63 cccccccccccccccccccccccccccccccccccccccccccccccccccccccccccccccccccccccccccccccccccccccccccccccccccccccccccccccccccccccccccccccccccccccccccccccccccccccccccccccccccccccccccccccccccccccccccccccccccccccccccccccccccccccccccccccccccccccccccccccccccccccccccccccccccccccccccccccccccccccccccccccccccccccccccccccccccccccccccccccccccccccccc
(PID.TID 0000.0001) //     62 cccccccccccccccccccccccccccccccccccccccccccccccccccccccccccccccccccccccccccccccccccccccccccccccccccccccccccccccccccccccccccccccccccccccccccccccccccccccccccccccccccccccccccccccccccccccccccccccccccccccccccccccccccccccccccccccccccccccccccccccccccccccccccccccccccccccccccccccccccccccccccccccccccccccccccccccccccccccccccccccccccccccccc
(PID.TID 0000.0001) //     61 cccccccccccccccccccccccccccccccccccccccccccccccccccccccccccccccccccccccccccccccccccccccccccccccccccccccccccccccccccccccccccccccccccccccccccccccccccccccccccccccccccccccccccccccccccccccccccccccccccccccccccccccccccccccccccccccccccccccccccccccccccccccccccccccccccccccccccccccccccccccccccccccccccccccccccccccccccccccccccccccccccccccccc
(PID.TID 0000.0001) //     60 cccccccccccccccccccccccccccccccccccccccccccccccccccccccccccccccccccccccccccccccccccccccccccccccccccccccccccccccccccccccccccccccccccccccccccccccccccccccccccccccccccccccccccccccccccccccccccccccccccccccccccccccccccccccccccccccccccccccccccccccccccccccccccccccccccccccccccccccccccccccccccccccccccccccccccccccccccccccccccccccccccccccccc
(PID.TID 0000.0001) //     59 cccccccccccccccccccccccccccccccccccccccccccccccccccccccccccccccccccccccccccccccccccccccccccccccccccccccccccccccccccccccccccccccccccccccccccccccccccccccccccccccccccccccccccccccccccccccccccccccccccccccccccccccccccccccccccccccccccccccccccccccccccccccccccccccccccccccccccccccccccccccccccccccccccccccccccccccccccccccccccccccccccccccccc
(PID.TID 0000.0001) //     58 cccccccccccccccccccccccccccccccccccccccccccccccccccccccccccccccccccccccccccccccccccccccccccccccccccccccccccccccccccccccccccccccccccccccccccccccccccccccccccccccccccccccccccccccccccccccccccccccccccccccccccccccccccccccccccccccccccccccccccccccccccccccccccccccccccccccccccccccccccccccccccccccccccccccccccccccccccccccccccccccccccccccccc
(PID.TID 0000.0001) //     63 cccccccccccccccccccccccccccccccccccccccccccccccccccccccccccccccccccccccccccccccccccccccccccccccccccccccccccccccccccccccccccccccccccccccccccccccccccccccccccccccccccccccccccccccccccccccccccccccccccccccccccccccccccccccccccccccccccccccccccccccccccccccccccccccccccccccccccccccccccccccccccccccccccccccccccccccccccccccccccccccccccccccccc
(PID.TID 0000.0001) //     62 cccccccccccccccccccccccccccccccccccccccccccccccccccccccccccccccccccccccccccccccccccccccccccccccccccccccccccccccccccccccccccccccccccccccccccccccccccccccccccccccccccccccccccccccccccccccccccccccccccccccccccccccccccccccccccccccccccccccccccccccccccccccccccccccccccccccccccccccccccccccccccccccccccccccccccccccccccccccccccccccccccccccccc
(PID.TID 0000.0001) //     61 cccccccccccccccccccccccccccccccccccccccccccccccccccccccccccccccccccccccccccccccccccccccccccccccccccccccccccccccccccccccccccccccccccccccccccccccccccccccccccccccccccccccccccccccccccccccccccccccccccccccccccccccccccccccccccccccccccccccccccccccccccccccccccccccccccccccccccccccccccccccccccccccccccccccccccccccccccccccccccccccccccccccccc
(PID.TID 0000.0001) //     60 cccccccccccccccccccccccccccccccccccccccccccccccccccccccccccccccccccccccccccccccccccccccccccccccccccccccccccccccccccccccccccccccccccccccccccccccccccccccccccccccccccccccccccccccccccccccccccccccccccccccccccccccccccccccccccccccccccccccccccccccccccccccccccccccccccccccccccccccccccccccccccccccccccccccccccccccccccccccccccccccccccccccccc
(PID.TID 0000.0001) //     59 cccccccccccccccccccccccccccccccccccccccccccccccccccccccccccccccccccccccccccccccccccccccccccccccccccccccccccccccccccccccccccccccccccccccccccccccccccccccccccccccccccccccccccccccccccccccccccccccccccccccccccccccccccccccccccccccccccccccccccccccccccccccccccccccccccccccccccccccccccccccccccccccccccccccccccccccccccccccccccccccccccccccccc
(PID.TID 0000.0001) //     58 cccccccccccccccccccccccccccccccccccccccccccccccccccccccccccccccccccccccccccccccccccccccccccccccccccccccccccccccccccccccccccccccccccccccccccccccccccccccccccccccccccccccccccccccccccccccccccccccccccccccccccccccccccccccccccccccccccccccccccccccccccccccccccccccccccccccccccccccccccccccccccccccccccccccccccccccccccccccccccccccccccccccccc
(PID.TID 0000.0001) //     57 ------------------------------------------------------------------------------------------------------------------------------------------------------------------------------------------------------------------------------------------------------------------------------------------------------------------------------------------
(PID.TID 0000.0001) //     56 ------------------------------------------------------------------------------------------------------------------------------------------------------------------------------------------------------------------------------------------------------------------------------------------------------------------------------------------
(PID.TID 0000.0001) //     55 ------------------------------------------------------------------------------------------------------------------------------------------------------------------------------------------------------------------------------------------------------------------------------------------------------------------------------------------
(PID.TID 0000.0001) //     54 ------------------------------------------------------------------------------------------------------------------------------------------------------------------------------------------------------------------------------------------------------------------------------------------------------------------------------------------
(PID.TID 0000.0001) //     53 ------------------------------------------------------------------------------------------------------------------------------------------------------------------------------------------------------------------------------------------------------------------------------------------------------------------------------------------
(PID.TID 0000.0001) //     52 ------------------------------------------------------------------------------------------------------------------------------------------------------------------------------------------------------------------------------------------------------------------------------------------------------------------------------------------
(PID.TID 0000.0001) //     51 ------------------------------------------------------------------------------------------------------------------------------------------------------------------------------------------------------------------------------------------------------------------------------------------------------------------------------------------
(PID.TID 0000.0001) //     50 ------------------------------------------------------------------------------------------------------------------------------------------------------------------------------------------------------------------------------------------------------------------------------------------------------------------------------------------
(PID.TID 0000.0001) //     49 ------------------------------------------------------------------------------------------------------------------------------------------------------------------------------------------------------------------------------------------------------------------------------------------------------------------------------------------
(PID.TID 0000.0001) //     48 ------------------------------------------------------------------------------------------------------------------------------------------------------------------------------------------------------------------------------------------------------------------------------------------------------------------------------------------
(PID.TID 0000.0001) //     47 ------------------------------------------------------------------------------------------------------------------------------------------------------------------------------------------------------------------------------------------------------------------------------------------------------------------------------------------
(PID.TID 0000.0001) //     46 ------------------------------------------------------------------------------------------------------------------------------------------------------------------------------------------------------------------------------------------------------------------------------------------------------------------------------------------
(PID.TID 0000.0001) //     51 ------------------------------------------------------------------------------------------------------------------------------------------------------------------------------------------------------------------------------------------------------------------------------------------------------------------------------------------
(PID.TID 0000.0001) //     50 ------------------------------------------------------------------------------------------------------------------------------------------------------------------------------------------------------------------------------------------------------------------------------------------------------------------------------------------
(PID.TID 0000.0001) //     49 ------------------------------------------------------------------------------------------------------------------------------------------------------------------------------------------------------------------------------------------------------------------------------------------------------------------------------------------
(PID.TID 0000.0001) //     48 ------------------------------------------------------------------------------------------------------------------------------------------------------------------------------------------------------------------------------------------------------------------------------------------------------------------------------------------
(PID.TID 0000.0001) //     47 ------------------------------------------------------------------------------------------------------------------------------------------------------------------------------------------------------------------------------------------------------------------------------------------------------------------------------------------
(PID.TID 0000.0001) //     46 ------------------------------------------------------------------------------------------------------------------------------------------------------------------------------------------------------------------------------------------------------------------------------------------------------------------------------------------
(PID.TID 0000.0001) //     45 ------------------------------------------------------------------------------------------------------------------------------------------------------------------------------------------------------------------------------------------------------------------------------------------------------------------------------------------
(PID.TID 0000.0001) //     44 ------------------------------------------------------------------------------------------------------------------------------------------------------------------------------------------------------------------------------------------------------------------------------------------------------------------------------------------
(PID.TID 0000.0001) //     43 ------------------------------------------------------------------------------------------------------------------------------------------------------------------------------------------------------------------------------------------------------------------------------------------------------------------------------------------
(PID.TID 0000.0001) //     42 ------------------------------------------------------------------------------------------------------------------------------------------------------------------------------------------------------------------------------------------------------------------------------------------------------------------------------------------
(PID.TID 0000.0001) //     41 ------------------------------------------------------------------------------------------------------------------------------------------------------------------------------------------------------------------------------------------------------------------------------------------------------------------------------------------
(PID.TID 0000.0001) //     40 ------------------------------------------------------------------------------------------------------------------------------------------------------------------------------------------------------------------------------------------------------------------------------------------------------------------------------------------
(PID.TID 0000.0001) //     39 ------------------------------------------------------------------------------------------------------------------------------------------------------------------------------------------------------------------------------------------------------------------------------------------------------------------------------------------
(PID.TID 0000.0001) //     38 ------------------------------------------------------------------------------------------------------------------------------------------------------------------------------------------------------------------------------------------------------------------------------------------------------------------------------------------
(PID.TID 0000.0001) //     37 ------------------------------------------------------------------------------------------------------------------------------------------------------------------------------------------------------------------------------------------------------------------------------------------------------------------------------------------
(PID.TID 0000.0001) //     36 ------------------------------------------------------------------------------------------------------------------------------------------------------------------------------------------------------------------------------------------------------------------------------------------------------------------------------------------
(PID.TID 0000.0001) //     35 ------------------------------------------------------------------------------------------------------------------------------------------------------------------------------------------------------------------------------------------------------------------------------------------------------------------------------------------
(PID.TID 0000.0001) //     34 ------------------------------------------------------------------------------------------------------------------------------------------------------------------------------------------------------------------------------------------------------------------------------------------------------------------------------------------
(PID.TID 0000.0001) //     39 ------------------------------------------------------------------------------------------------------------------------------------------------------------------------------------------------------------------------------------------------------------------------------------------------------------------------------------------
(PID.TID 0000.0001) //     38 ------------------------------------------------------------------------------------------------------------------------------------------------------------------------------------------------------------------------------------------------------------------------------------------------------------------------------------------
(PID.TID 0000.0001) //     37 ------------------------------------------------------------------------------------------------------------------------------------------------------------------------------------------------------------------------------------------------------------------------------------------------------------------------------------------
(PID.TID 0000.0001) //     36 ------------------------------------------------------------------------------------------------------------------------------------------------------------------------------------------------------------------------------------------------------------------------------------------------------------------------------------------
(PID.TID 0000.0001) //     35 ------------------------------------------------------------------------------------------------------------------------------------------------------------------------------------------------------------------------------------------------------------------------------------------------------------------------------------------
(PID.TID 0000.0001) //     34 ------------------------------------------------------------------------------------------------------------------------------------------------------------------------------------------------------------------------------------------------------------------------------------------------------------------------------------------
(PID.TID 0000.0001) //     33 ------------------------------------------------------------------------------------------------------------------------------------------------------------------------------------------------------------------------------------------------------------------------------------------------------------------------------------------
(PID.TID 0000.0001) //     32 ------------------------------------------------------------------------------------------------------------------------------------------------------------------------------------------------------------------------------------------------------------------------------------------------------------------------------------------
(PID.TID 0000.0001) //     31 ------------------------------------------------------------------------------------------------------------------------------------------------------------------------------------------------------------------------------------------------------------------------------------------------------------------------------------------
(PID.TID 0000.0001) //     30 ------------------------------------------------------------------------------------------------------------------------------------------------------------------------------------------------------------------------------------------------------------------------------------------------------------------------------------------
(PID.TID 0000.0001) //     29 ------------------------------------------------------------------------------------------------------------------------------------------------------------------------------------------------------------------------------------------------------------------------------------------------------------------------------------------
(PID.TID 0000.0001) //     28 ------------------------------------------------------------------------------------------------------------------------------------------------------------------------------------------------------------------------------------------------------------------------------------------------------------------------------------------
(PID.TID 0000.0001) //     27 ------------------------------------------------------------------------------------------------------------------------------------------------------------------------------------------------------------------------------------------------------------------------------------------------------------------------------------------
(PID.TID 0000.0001) //     26 ------------------------------------------------------------------------------------------------------------------------------------------------------------------------------------------------------------------------------------------------------------------------------------------------------------------------------------------
(PID.TID 0000.0001) //     25 ------------------------------------------------------------------------------------------------------------------------------------------------------------------------------------------------------------------------------------------------------------------------------------------------------------------------------------------
(PID.TID 0000.0001) //     24 ------------------------------------------------------------------------------------------------------------------------------------------------------------------------------------------------------------------------------------------------------------------------------------------------------------------------------------------
(PID.TID 0000.0001) //     23 ------------------------------------------------------------------------------------------------------------------------------------------------------------------------------------------------------------------------------------------------------------------------------------------------------------------------------------------
(PID.TID 0000.0001) //     22 ------------------------------------------------------------------------------------------------------------------------------------------------------------------------------------------------------------------------------------------------------------------------------------------------------------------------------------------
(PID.TID 0000.0001) //     27 ------------------------------------------------------------------------------------------------------------------------------------------------------------------------------------------------------------------------------------------------------------------------------------------------------------------------------------------
(PID.TID 0000.0001) //     26 ------------------------------------------------------------------------------------------------------------------------------------------------------------------------------------------------------------------------------------------------------------------------------------------------------------------------------------------
(PID.TID 0000.0001) //     25 ------------------------------------------------------------------------------------------------------------------------------------------------------------------------------------------------------------------------------------------------------------------------------------------------------------------------------------------
(PID.TID 0000.0001) //     24 ------------------------------------------------------------------------------------------------------------------------------------------------------------------------------------------------------------------------------------------------------------------------------------------------------------------------------------------
(PID.TID 0000.0001) //     23 ------------------------------------------------------------------------------------------------------------------------------------------------------------------------------------------------------------------------------------------------------------------------------------------------------------------------------------------
(PID.TID 0000.0001) //     22 ------------------------------------------------------------------------------------------------------------------------------------------------------------------------------------------------------------------------------------------------------------------------------------------------------------------------------------------
(PID.TID 0000.0001) //     21 ------------------------------------------------------------------------------------------------------------------------------------------------------------------------------------------------------------------------------------------------------------------------------------------------------------------------------------------
(PID.TID 0000.0001) //     20 ------------------------------------------------------------------------------------------------------------------------------------------------------------------------------------------------------------------------------------------------------------------------------------------------------------------------------------------
(PID.TID 0000.0001) //     19 ------------------------------------------------------------------------------------------------------------------------------------------------------------------------------------------------------------------------------------------------------------------------------------------------------------------------------------------
(PID.TID 0000.0001) //     18 ------------------------------------------------------------------------------------------------------------------------------------------------------------------------------------------------------------------------------------------------------------------------------------------------------------------------------------------
(PID.TID 0000.0001) //     17 ------------------------------------------------------------------------------------------------------------------------------------------------------------------------------------------------------------------------------------------------------------------------------------------------------------------------------------------
(PID.TID 0000.0001) //     16 ------------------------------------------------------------------------------------------------------------------------------------------------------------------------------------------------------------------------------------------------------------------------------------------------------------------------------------------
(PID.TID 0000.0001) //     15 ------------------------------------------------------------------------------------------------------------------------------------------------------------------------------------------------------------------------------------------------------------------------------------------------------------------------------------------
(PID.TID 0000.0001) //     14 ------------------------------------------------------------------------------------------------------------------------------------------------------------------------------------------------------------------------------------------------------------------------------------------------------------------------------------------
(PID.TID 0000.0001) //     13 ------------------------------------------------------------------------------------------------------------------------------------------------------------------------------------------------------------------------------------------------------------------------------------------------------------------------------------------
(PID.TID 0000.0001) //     12 ------------------------------------------------------------------------------------------------------------------------------------------------------------------------------------------------------------------------------------------------------------------------------------------------------------------------------------------
(PID.TID 0000.0001) //     11 ------------------------------------------------------------------------------------------------------------------------------------------------------------------------------------------------------------------------------------------------------------------------------------------------------------------------------------------
(PID.TID 0000.0001) //     10 ------------------------------------------------------------------------------------------------------------------------------------------------------------------------------------------------------------------------------------------------------------------------------------------------------------------------------------------
(PID.TID 0000.0001) //     15 ------------------------------------------------------------------------------------------------------------------------------------------------------------------------------------------------------------------------------------------------------------------------------------------------------------------------------------------
(PID.TID 0000.0001) //     14 ------------------------------------------------------------------------------------------------------------------------------------------------------------------------------------------------------------------------------------------------------------------------------------------------------------------------------------------
(PID.TID 0000.0001) //     13 ------------------------------------------------------------------------------------------------------------------------------------------------------------------------------------------------------------------------------------------------------------------------------------------------------------------------------------------
(PID.TID 0000.0001) //     12 ------------------------------------------------------------------------------------------------------------------------------------------------------------------------------------------------------------------------------------------------------------------------------------------------------------------------------------------
(PID.TID 0000.0001) //     11 ------------------------------------------------------------------------------------------------------------------------------------------------------------------------------------------------------------------------------------------------------------------------------------------------------------------------------------------
(PID.TID 0000.0001) //     10 ------------------------------------------------------------------------------------------------------------------------------------------------------------------------------------------------------------------------------------------------------------------------------------------------------------------------------------------
(PID.TID 0000.0001) //      9 ------------------------------------------------------------------------------------------------------------------------------------------------------------------------------------------------------------------------------------------------------------------------------------------------------------------------------------------
(PID.TID 0000.0001) //      8 ------------------------------------------------------------------------------------------------------------------------------------------------------------------------------------------------------------------------------------------------------------------------------------------------------------------------------------------
(PID.TID 0000.0001) //      7 ------------------------------------------------------------------------------------------------------------------------------------------------------------------------------------------------------------------------------------------------------------------------------------------------------------------------------------------
(PID.TID 0000.0001) //      6 ------------------------------------------------------------------------------------------------------------------------------------------------------------------------------------------------------------------------------------------------------------------------------------------------------------------------------------------
(PID.TID 0000.0001) //      5 ------------------------------------------------------------------------------------------------------------------------------------------------------------------------------------------------------------------------------------------------------------------------------------------------------------------------------------------
(PID.TID 0000.0001) //      4 ------------------------------------------------------------------------------------------------------------------------------------------------------------------------------------------------------------------------------------------------------------------------------------------------------------------------------------------
(PID.TID 0000.0001) //      3 ------------------------------------------------------------------------------------------------------------------------------------------------------------------------------------------------------------------------------------------------------------------------------------------------------------------------------------------
(PID.TID 0000.0001) //      2 ------------------------------------------------------------------------------------------------------------------------------------------------------------------------------------------------------------------------------------------------------------------------------------------------------------------------------------------
(PID.TID 0000.0001) //      1 ------------------------------------------------------------------------------------------------------------------------------------------------------------------------------------------------------------------------------------------------------------------------------------------------------------------------------------------
(PID.TID 0000.0001) //      0 ..........................................................................................................................................................................................................................................................................................................................................
(PID.TID 0000.0001) //     -1 .....................................................................................................................................................+++++.++++++++++++++++++++.+++++.....................................................................................................................................................
(PID.TID 0000.0001) //     -2 ................................................................................................................................................++++++++++++++++++++++++++++++++++++++++++................................................................................................................................................
(PID.TID 0000.0001) // =======================================================
(PID.TID 0000.0001) // END OF FIELD                                          =
(PID.TID 0000.0001) // =======================================================
(PID.TID 0000.0001) 
(PID.TID 0000.0001) // =======================================================
(PID.TID 0000.0001) // Field Model Ro_surf (ini_masks_etc)
(PID.TID 0000.0001) // CMIN =          1.000000000000000E+32
(PID.TID 0000.0001) // CMAX =         -1.000000000000000E+32
(PID.TID 0000.0001) // CINT =          0.000000000000000E+00
(PID.TID 0000.0001) // SYMBOLS (CMIN->CMAX): -abcdefghijklmnopqrstuvwxyz+
(PID.TID 0000.0001) //                  0.0: .
(PID.TID 0000.0001) // RANGE I (Lo:Hi:Step):(    -2:   243:     1)
(PID.TID 0000.0001) // RANGE J (Lo:Hi:Step):(   183:    -2:    -1)
(PID.TID 0000.0001) // RANGE K (Lo:Hi:Step):(   1:   1:   1)
(PID.TID 0000.0001) // =======================================================
(PID.TID 0000.0001) // =======================================================
(PID.TID 0000.0001) // END OF FIELD                                          =
(PID.TID 0000.0001) // =======================================================
(PID.TID 0000.0001) 
(PID.TID 0000.0001) // =======================================================
(PID.TID 0000.0001) // Field hFacC at iteration          0
(PID.TID 0000.0001) // CMIN =          1.000000000000000E+00
(PID.TID 0000.0001) // CMAX =          1.000000000000000E+00
(PID.TID 0000.0001) // CINT =          0.000000000000000E+00
(PID.TID 0000.0001) // SYMBOLS (CMIN->CMAX): -abcdefghijklmnopqrstuvwxyz+
(PID.TID 0000.0001) //                  0.0: .
(PID.TID 0000.0001) // RANGE I (Lo:Hi:Step):(    -2:   243:     1)
(PID.TID 0000.0001) // RANGE J (Lo:Hi:Step):(   183:    -2:    -1)
(PID.TID 0000.0001) // RANGE K (Lo:Hi:Step):(   1:   1:   1)
(PID.TID 0000.0001) // =======================================================
(PID.TID 0000.0001) // =======================================================
(PID.TID 0000.0001) // END OF FIELD                                          =
(PID.TID 0000.0001) // =======================================================
(PID.TID 0000.0001) 
(PID.TID 0000.0001) // =======================================================
(PID.TID 0000.0001) // Field hFacW at iteration          0
(PID.TID 0000.0001) // CMIN =          1.000000000000000E+00
(PID.TID 0000.0001) // CMAX =          1.000000000000000E+00
(PID.TID 0000.0001) // CINT =          0.000000000000000E+00
(PID.TID 0000.0001) // SYMBOLS (CMIN->CMAX): -abcdefghijklmnopqrstuvwxyz+
(PID.TID 0000.0001) //                  0.0: .
(PID.TID 0000.0001) // RANGE I (Lo:Hi:Step):(    -2:   243:     1)
(PID.TID 0000.0001) // RANGE J (Lo:Hi:Step):(   183:    -2:    -1)
(PID.TID 0000.0001) // RANGE K (Lo:Hi:Step):(   1:   1:   1)
(PID.TID 0000.0001) // =======================================================
(PID.TID 0000.0001) // =======================================================
(PID.TID 0000.0001) // END OF FIELD                                          =
(PID.TID 0000.0001) // =======================================================
(PID.TID 0000.0001) 
(PID.TID 0000.0001) // =======================================================
(PID.TID 0000.0001) // Field hFacS at iteration          0
(PID.TID 0000.0001) // CMIN =          1.000000000000000E+00
(PID.TID 0000.0001) // CMAX =          1.000000000000000E+00
(PID.TID 0000.0001) // CINT =          0.000000000000000E+00
(PID.TID 0000.0001) // SYMBOLS (CMIN->CMAX): -abcdefghijklmnopqrstuvwxyz+
(PID.TID 0000.0001) //                  0.0: .
(PID.TID 0000.0001) // RANGE I (Lo:Hi:Step):(    -2:   243:     1)
(PID.TID 0000.0001) // RANGE J (Lo:Hi:Step):(   183:    -2:    -1)
(PID.TID 0000.0001) // RANGE K (Lo:Hi:Step):(   1:   1:   1)
(PID.TID 0000.0001) // =======================================================
(PID.TID 0000.0001) // =======================================================
(PID.TID 0000.0001) // END OF FIELD                                          =
(PID.TID 0000.0001) // =======================================================
(PID.TID 0000.0001) 
(PID.TID 0000.0001) GAD_INIT_FIXED: GAD_OlMinSize=  1  0  1
(PID.TID 0000.0001) 
(PID.TID 0000.0001) // ===================================
(PID.TID 0000.0001) // GAD parameters :
(PID.TID 0000.0001) // ===================================
(PID.TID 0000.0001) tempAdvScheme =   /* Temp. Horiz.Advection scheme selector */
(PID.TID 0000.0001)                       2
(PID.TID 0000.0001)     ;
(PID.TID 0000.0001) tempVertAdvScheme =   /* Temp. Vert. Advection scheme selector */
(PID.TID 0000.0001)                       2
(PID.TID 0000.0001)     ;
(PID.TID 0000.0001) tempMultiDimAdvec =   /* use Muti-Dim Advec method for Temp */
(PID.TID 0000.0001)                   F
(PID.TID 0000.0001)     ;
(PID.TID 0000.0001) tempSOM_Advection = /* use 2nd Order Moment Advection for Temp */
(PID.TID 0000.0001)                   F
(PID.TID 0000.0001)     ;
(PID.TID 0000.0001) AdamsBashforthGt = /* apply Adams-Bashforth extrapolation on Gt */
(PID.TID 0000.0001)                   T
(PID.TID 0000.0001)     ;
(PID.TID 0000.0001) AdamsBashforth_T = /* apply Adams-Bashforth extrapolation on Temp */
(PID.TID 0000.0001)                   F
(PID.TID 0000.0001)     ;
(PID.TID 0000.0001) saltAdvScheme =   /* Salt. Horiz.advection scheme selector */
(PID.TID 0000.0001)                       2
(PID.TID 0000.0001)     ;
(PID.TID 0000.0001) saltVertAdvScheme =   /* Salt. Vert. Advection scheme selector */
(PID.TID 0000.0001)                       2
(PID.TID 0000.0001)     ;
(PID.TID 0000.0001) saltMultiDimAdvec =   /* use Muti-Dim Advec method for Salt */
(PID.TID 0000.0001)                   F
(PID.TID 0000.0001)     ;
(PID.TID 0000.0001) saltSOM_Advection = /* use 2nd Order Moment Advection for Salt */
(PID.TID 0000.0001)                   F
(PID.TID 0000.0001)     ;
(PID.TID 0000.0001) AdamsBashforthGs = /* apply Adams-Bashforth extrapolation on Gs */
(PID.TID 0000.0001)                   T
(PID.TID 0000.0001)     ;
(PID.TID 0000.0001) AdamsBashforth_S = /* apply Adams-Bashforth extrapolation on Salt */
(PID.TID 0000.0001)                   F
(PID.TID 0000.0001)     ;
(PID.TID 0000.0001) // ===================================
(PID.TID 0000.0001) Empty tile bi,bj=     1    11
(PID.TID 0000.0001) Empty tile bi,bj=     2    11
(PID.TID 0000.0001) Empty tile bi,bj=     3    11
(PID.TID 0000.0001) Empty tile bi,bj=    13    11
(PID.TID 0000.0001) Empty tile bi,bj=    14    11
(PID.TID 0000.0001) Empty tile bi,bj=    15    11
(PID.TID 0000.0001) Empty tile bi,bj=     1    12
(PID.TID 0000.0001) Empty tile bi,bj=     2    12
(PID.TID 0000.0001) Empty tile bi,bj=     3    12
(PID.TID 0000.0001) Empty tile bi,bj=    13    12
(PID.TID 0000.0001) Empty tile bi,bj=    14    12
(PID.TID 0000.0001) Empty tile bi,bj=    15    12
(PID.TID 0000.0001) Empty tile bi,bj=     1    13
(PID.TID 0000.0001) Empty tile bi,bj=     2    13
(PID.TID 0000.0001) Empty tile bi,bj=     3    13
(PID.TID 0000.0001) Empty tile bi,bj=     4    13
(PID.TID 0000.0001) Empty tile bi,bj=    12    13
(PID.TID 0000.0001) Empty tile bi,bj=    13    13
(PID.TID 0000.0001) Empty tile bi,bj=    14    13
(PID.TID 0000.0001) Empty tile bi,bj=    15    13
(PID.TID 0000.0001) Empty tile bi,bj=     1    14
(PID.TID 0000.0001) Empty tile bi,bj=     2    14
(PID.TID 0000.0001) Empty tile bi,bj=     3    14
(PID.TID 0000.0001) Empty tile bi,bj=     4    14
(PID.TID 0000.0001) Empty tile bi,bj=    12    14
(PID.TID 0000.0001) Empty tile bi,bj=    13    14
(PID.TID 0000.0001) Empty tile bi,bj=    14    14
(PID.TID 0000.0001) Empty tile bi,bj=    15    14
(PID.TID 0000.0001) Empty tile bi,bj=     1    15
(PID.TID 0000.0001) Empty tile bi,bj=     2    15
(PID.TID 0000.0001) Empty tile bi,bj=     3    15
(PID.TID 0000.0001) Empty tile bi,bj=     4    15
(PID.TID 0000.0001) Empty tile bi,bj=     5    15
(PID.TID 0000.0001) Empty tile bi,bj=    11    15
(PID.TID 0000.0001) Empty tile bi,bj=    12    15
(PID.TID 0000.0001) Empty tile bi,bj=    13    15
(PID.TID 0000.0001) Empty tile bi,bj=    14    15
(PID.TID 0000.0001) Empty tile bi,bj=    15    15
(PID.TID 0000.0001) 
(PID.TID 0000.0001) %MON fCori_max                    =   6.9758170400000E-04
(PID.TID 0000.0001) %MON fCori_min                    =   6.9339170400000E-04
(PID.TID 0000.0001) %MON fCori_mean                   =   6.9548670391111E-04
(PID.TID 0000.0001) %MON fCori_sd                     =   1.2162873101808E-06
(PID.TID 0000.0001) %MON fCoriG_max                   =   6.9757000000000E-04
(PID.TID 0000.0001) %MON fCoriG_min                   =   6.9338000000000E-04
(PID.TID 0000.0001) %MON fCoriG_mean                  =   6.9547500000000E-04
(PID.TID 0000.0001) %MON fCoriG_sd                    =   1.2162873093255E-06
(PID.TID 0000.0001) %MON fCoriCos_max                 =   0.0000000000000E+00
(PID.TID 0000.0001) %MON fCoriCos_min                 =   0.0000000000000E+00
(PID.TID 0000.0001) %MON fCoriCos_mean                =   0.0000000000000E+00
(PID.TID 0000.0001) %MON fCoriCos_sd                  =   0.0000000000000E+00
(PID.TID 0000.0001) INI_CG2D: CG2D normalisation factor =  8.5082023239917495E-04
(PID.TID 0000.0001) 
(PID.TID 0000.0001) // =======================================================
(PID.TID 0000.0001) // Model configuration
(PID.TID 0000.0001) // =======================================================
(PID.TID 0000.0001) //
(PID.TID 0000.0001) // "Physical" paramters ( PARM01 in namelist )
(PID.TID 0000.0001) //
(PID.TID 0000.0001) buoyancyRelation = /* Type of relation to get Buoyancy */
(PID.TID 0000.0001)               'OCEANIC'
(PID.TID 0000.0001)     ;
(PID.TID 0000.0001) fluidIsAir   =  /* fluid major constituent is Air */
(PID.TID 0000.0001)                   F
(PID.TID 0000.0001)     ;
(PID.TID 0000.0001) fluidIsWater =  /* fluid major constituent is Water */
(PID.TID 0000.0001)                   T
(PID.TID 0000.0001)     ;
(PID.TID 0000.0001) usingPCoords =  /* use p (or p*) vertical coordinate */
(PID.TID 0000.0001)                   F
(PID.TID 0000.0001)     ;
(PID.TID 0000.0001) usingZCoords =  /* use z (or z*) vertical coordinate */
(PID.TID 0000.0001)                   T
(PID.TID 0000.0001)     ;
(PID.TID 0000.0001) tRef =   /* Reference temperature profile ( oC or K ) */
(PID.TID 0000.0001)     3 @  1.660000000000000E+01,             /* K =  1:  3 */
(PID.TID 0000.0001)     7 @  1.650000000000000E+01,             /* K =  4: 10 */
(PID.TID 0000.0001)     2 @  1.640000000000000E+01,             /* K = 11: 12 */
(PID.TID 0000.0001)                 1.630000000000000E+01,      /* K = 13 */
(PID.TID 0000.0001)                 1.610000000000000E+01,      /* K = 14 */
(PID.TID 0000.0001)                 1.590000000000000E+01,      /* K = 15 */
(PID.TID 0000.0001)                 1.570000000000000E+01,      /* K = 16 */
(PID.TID 0000.0001)                 1.530000000000000E+01,      /* K = 17 */
(PID.TID 0000.0001)                 1.480000000000000E+01,      /* K = 18 */
(PID.TID 0000.0001)                 1.420000000000000E+01,      /* K = 19 */
(PID.TID 0000.0001)                 1.350000000000000E+01,      /* K = 20 */
(PID.TID 0000.0001)                 1.260000000000000E+01,      /* K = 21 */
(PID.TID 0000.0001)                 1.170000000000000E+01,      /* K = 22 */
(PID.TID 0000.0001)                 1.100000000000000E+01,      /* K = 23 */
(PID.TID 0000.0001)                 1.040000000000000E+01,      /* K = 24 */
(PID.TID 0000.0001)                 9.699999999999999E+00,      /* K = 25 */
(PID.TID 0000.0001)                 9.199999999999999E+00,      /* K = 26 */
(PID.TID 0000.0001)                 8.800000000000001E+00,      /* K = 27 */
(PID.TID 0000.0001)                 8.400000000000000E+00,      /* K = 28 */
(PID.TID 0000.0001)                 8.000000000000000E+00,      /* K = 29 */
(PID.TID 0000.0001)                 7.500000000000000E+00,      /* K = 30 */
(PID.TID 0000.0001)                 7.100000000000000E+00,      /* K = 31 */
(PID.TID 0000.0001)                 6.700000000000000E+00,      /* K = 32 */
(PID.TID 0000.0001)                 6.400000000000000E+00,      /* K = 33 */
(PID.TID 0000.0001)                 6.100000000000000E+00,      /* K = 34 */
(PID.TID 0000.0001)                 5.800000000000000E+00,      /* K = 35 */
(PID.TID 0000.0001)                 5.500000000000000E+00,      /* K = 36 */
(PID.TID 0000.0001)                 5.200000000000000E+00,      /* K = 37 */
(PID.TID 0000.0001)                 4.800000000000000E+00,      /* K = 38 */
(PID.TID 0000.0001)                 4.500000000000000E+00,      /* K = 39 */
(PID.TID 0000.0001)                 4.200000000000000E+00       /* K = 40 */
(PID.TID 0000.0001)     ;
(PID.TID 0000.0001) sRef =   /* Reference salinity profile ( g/kg ) */
(PID.TID 0000.0001)    17 @  3.360000000000000E+01,             /* K =  1: 17 */
(PID.TID 0000.0001)     3 @  3.370000000000000E+01,             /* K = 18: 20 */
(PID.TID 0000.0001)     3 @  3.380000000000000E+01,             /* K = 21: 23 */
(PID.TID 0000.0001)     2 @  3.390000000000000E+01,             /* K = 24: 25 */
(PID.TID 0000.0001)     2 @  3.400000000000000E+01,             /* K = 26: 27 */
(PID.TID 0000.0001)                 3.410000000000000E+01,      /* K = 28 */
(PID.TID 0000.0001)     4 @  3.420000000000000E+01,             /* K = 29: 32 */
(PID.TID 0000.0001)     3 @  3.430000000000000E+01,             /* K = 33: 35 */
(PID.TID 0000.0001)     4 @  3.440000000000000E+01,             /* K = 36: 39 */
(PID.TID 0000.0001)                 3.450000000000000E+01       /* K = 40 */
(PID.TID 0000.0001)     ;
(PID.TID 0000.0001) rhoRef =   /* Density vertical profile from (Ref,sRef)( kg/m^3 ) */
(PID.TID 0000.0001)     3 @  9.998000000000000E+02,             /* K =  1:  3 */
(PID.TID 0000.0001)     7 @  9.998199959999999E+02,             /* K =  4: 10 */
(PID.TID 0000.0001)     2 @  9.998399919999999E+02,             /* K = 11: 12 */
(PID.TID 0000.0001)                 9.998599879999999E+02,      /* K = 13 */
(PID.TID 0000.0001)                 9.998999799999999E+02,      /* K = 14 */
(PID.TID 0000.0001)                 9.999399720000000E+02,      /* K = 15 */
(PID.TID 0000.0001)                 9.999799640000000E+02,      /* K = 16 */
(PID.TID 0000.0001)                 1.000059948000000E+03,      /* K = 17 */
(PID.TID 0000.0001)                 1.000233913200000E+03,      /* K = 18 */
(PID.TID 0000.0001)                 1.000353889200000E+03,      /* K = 19 */
(PID.TID 0000.0001)                 1.000493861200000E+03,      /* K = 20 */
(PID.TID 0000.0001)                 1.000747810400000E+03,      /* K = 21 */
(PID.TID 0000.0001)                 1.000927774400000E+03,      /* K = 22 */
(PID.TID 0000.0001)                 1.001067746400000E+03,      /* K = 23 */
(PID.TID 0000.0001)                 1.001261707600000E+03,      /* K = 24 */
(PID.TID 0000.0001)                 1.001401679600000E+03,      /* K = 25 */
(PID.TID 0000.0001)                 1.001575644800000E+03,      /* K = 26 */
(PID.TID 0000.0001)                 1.001655628800000E+03,      /* K = 27 */
(PID.TID 0000.0001)                 1.001809598000000E+03,      /* K = 28 */
(PID.TID 0000.0001)                 1.001963567200000E+03,      /* K = 29 */
(PID.TID 0000.0001)                 1.002063547200000E+03,      /* K = 30 */
(PID.TID 0000.0001)                 1.002143531200000E+03,      /* K = 31 */
(PID.TID 0000.0001)                 1.002223515200000E+03,      /* K = 32 */
(PID.TID 0000.0001)                 1.002357488400000E+03,      /* K = 33 */
(PID.TID 0000.0001)                 1.002417476400000E+03,      /* K = 34 */
(PID.TID 0000.0001)                 1.002477464400000E+03,      /* K = 35 */
(PID.TID 0000.0001)                 1.002611437600000E+03,      /* K = 36 */
(PID.TID 0000.0001)                 1.002671425600000E+03,      /* K = 37 */
(PID.TID 0000.0001)                 1.002751409600000E+03,      /* K = 38 */
(PID.TID 0000.0001)                 1.002811397600000E+03,      /* K = 39 */
(PID.TID 0000.0001)                 1.002945370800000E+03       /* K = 40 */
(PID.TID 0000.0001)     ;
(PID.TID 0000.0001) dBdrRef = /* Vertical grad. of reference buoyancy [(m/s/r)^2] */
(PID.TID 0000.0001)     3 @  0.000000000000000E+00,             /* K =  1:  3 */
(PID.TID 0000.0001)                 7.694117647058936E-05,      /* K =  4 */
(PID.TID 0000.0001)     6 @  0.000000000000000E+00,             /* K =  5: 10 */
(PID.TID 0000.0001)                 3.809708737864132E-05,      /* K = 11 */
(PID.TID 0000.0001)                 0.000000000000000E+00,      /* K = 12 */
(PID.TID 0000.0001)                 3.114285714285648E-05,      /* K = 13 */
(PID.TID 0000.0001)                 5.646043165467606E-05,      /* K = 14 */
(PID.TID 0000.0001)                 5.129411764705909E-05,      /* K = 15 */
(PID.TID 0000.0001)                 4.643786982248546E-05,      /* K = 16 */
(PID.TID 0000.0001)                 8.393582887700505E-05,      /* K = 17 */
(PID.TID 0000.0001)                 1.657223300970884E-04,      /* K = 18 */
(PID.TID 0000.0001)                 1.032631578947371E-04,      /* K = 19 */
(PID.TID 0000.0001)                 1.089999999999999E-04,      /* K = 20 */
(PID.TID 0000.0001)                 1.792618705035942E-04,      /* K = 21 */
(PID.TID 0000.0001)                 1.150358306188925E-04,      /* K = 22 */
(PID.TID 0000.0001)                 8.102654867256628E-05,      /* K = 23 */
(PID.TID 0000.0001)                 1.015008000000005E-04,      /* K = 24 */
(PID.TID 0000.0001)                 6.634782608695662E-05,      /* K = 25 */
(PID.TID 0000.0001)                 7.470196936542715E-05,      /* K = 26 */
(PID.TID 0000.0001)                 3.108118811881178E-05,      /* K = 27 */
(PID.TID 0000.0001)                 5.414838709677459E-05,      /* K = 28 */
(PID.TID 0000.0001)                 4.905000000000037E-05,      /* K = 29 */
(PID.TID 0000.0001)                 2.885294117647059E-05,      /* K = 30 */
(PID.TID 0000.0001)                 2.090013315579230E-05,      /* K = 31 */
(PID.TID 0000.0001)                 1.891084337349396E-05,      /* K = 32 */
(PID.TID 0000.0001)                 2.867044711014086E-05,      /* K = 33 */
(PID.TID 0000.0001)                 1.163241106719370E-05,      /* K = 34 */
(PID.TID 0000.0001)                 1.052951699463327E-05,      /* K = 35 */
(PID.TID 0000.0001)                 2.128809716599207E-05,      /* K = 36 */
(PID.TID 0000.0001)                 8.630498533724336E-06,      /* K = 37 */
(PID.TID 0000.0001)                 1.041539482415396E-05,      /* K = 38 */
(PID.TID 0000.0001)                 7.083032490974726E-06,      /* K = 39 */
(PID.TID 0000.0001)                 1.433522355507099E-05       /* K = 40 */
(PID.TID 0000.0001)     ;
(PID.TID 0000.0001) useStrainTensionVisc= /* Use StrainTension Form of Viscous Operator */
(PID.TID 0000.0001)                   F
(PID.TID 0000.0001)     ;
(PID.TID 0000.0001) useVariableVisc = /* Use variable horizontal viscosity */
(PID.TID 0000.0001)                   F
(PID.TID 0000.0001)     ;
(PID.TID 0000.0001) useHarmonicVisc = /* Use harmonic horizontal viscosity */
(PID.TID 0000.0001)                   T
(PID.TID 0000.0001)     ;
(PID.TID 0000.0001) useBiharmonicVisc= /* Use biharmonic horiz.  viscosity */
(PID.TID 0000.0001)                   F
(PID.TID 0000.0001)     ;
(PID.TID 0000.0001) useSmag3D = /* Use isotropic 3-D Smagorinsky viscosity */
(PID.TID 0000.0001)                   F
(PID.TID 0000.0001)     ;
(PID.TID 0000.0001) viscAh  =   /* Lateral harmonic viscosity ( m^2/s ) */
(PID.TID 0000.0001)                 1.000000000000000E+02
(PID.TID 0000.0001)     ;
(PID.TID 0000.0001) viscA4  =   /* Lateral biharmonic viscosity ( m^4/s ) */
(PID.TID 0000.0001)                 0.000000000000000E+00
(PID.TID 0000.0001)     ;
(PID.TID 0000.0001) no_slip_sides =  /* Viscous BCs: No-slip sides */
(PID.TID 0000.0001)                   F
(PID.TID 0000.0001)     ;
(PID.TID 0000.0001) sideDragFactor = /* side-drag scaling factor (non-dim) */
(PID.TID 0000.0001)                 2.000000000000000E+00
(PID.TID 0000.0001)     ;
(PID.TID 0000.0001) viscArNr = /* vertical profile of vertical viscosity ( m^2/s )*/
(PID.TID 0000.0001)    40 @  1.000000000000000E-05              /* K =  1: 40 */
(PID.TID 0000.0001)     ;
(PID.TID 0000.0001) no_slip_bottom =  /* Viscous BCs: No-slip bottom */
(PID.TID 0000.0001)                   F
(PID.TID 0000.0001)     ;
(PID.TID 0000.0001) bottomVisc_pCell = /* Partial-cell in bottom Visc. BC */
(PID.TID 0000.0001)                   F
(PID.TID 0000.0001)     ;
(PID.TID 0000.0001) bottomDragLinear = /* linear bottom-drag coefficient ( m/s ) */
(PID.TID 0000.0001)                 0.000000000000000E+00
(PID.TID 0000.0001)     ;
(PID.TID 0000.0001) bottomDragQuadratic = /* quadratic bottom-drag coefficient (-) */
(PID.TID 0000.0001)                 0.000000000000000E+00
(PID.TID 0000.0001)     ;
(PID.TID 0000.0001) selectBotDragQuadr = /* select quadratic bottom drag options */
(PID.TID 0000.0001)                      -1
(PID.TID 0000.0001)     ;
(PID.TID 0000.0001) diffKhT =   /* Laplacian diffusion of heat laterally ( m^2/s ) */
(PID.TID 0000.0001)                 1.000000000000000E+02
(PID.TID 0000.0001)     ;
(PID.TID 0000.0001) diffK4T =   /* Biharmonic diffusion of heat laterally ( m^4/s ) */
(PID.TID 0000.0001)                 0.000000000000000E+00
(PID.TID 0000.0001)     ;
(PID.TID 0000.0001) diffKhS =   /* Laplacian diffusion of salt laterally ( m^2/s ) */
(PID.TID 0000.0001)                 1.000000000000000E+02
(PID.TID 0000.0001)     ;
(PID.TID 0000.0001) diffK4S =   /* Biharmonic diffusion of salt laterally ( m^4/s ) */
(PID.TID 0000.0001)                 0.000000000000000E+00
(PID.TID 0000.0001)     ;
(PID.TID 0000.0001) diffKrNrT = /* vertical profile of vertical diffusion of Temp ( m^2/s )*/
(PID.TID 0000.0001)    40 @  1.000000000000000E-05              /* K =  1: 40 */
(PID.TID 0000.0001)     ;
(PID.TID 0000.0001) diffKrNrS = /* vertical profile of vertical diffusion of Salt ( m^2/s )*/
(PID.TID 0000.0001)    40 @  1.000000000000000E-05              /* K =  1: 40 */
(PID.TID 0000.0001)     ;
(PID.TID 0000.0001) diffKrBL79surf = /* Surface diffusion for Bryan and Lewis 79 ( m^2/s ) */
(PID.TID 0000.0001)                 0.000000000000000E+00
(PID.TID 0000.0001)     ;
(PID.TID 0000.0001) diffKrBL79deep = /* Deep diffusion for Bryan and Lewis 1979 ( m^2/s ) */
(PID.TID 0000.0001)                 0.000000000000000E+00
(PID.TID 0000.0001)     ;
(PID.TID 0000.0001) diffKrBL79scl = /* Depth scale for Bryan and Lewis 1979 ( m ) */
(PID.TID 0000.0001)                 2.000000000000000E+02
(PID.TID 0000.0001)     ;
(PID.TID 0000.0001) diffKrBL79Ho = /* Turning depth for Bryan and Lewis 1979 ( m ) */
(PID.TID 0000.0001)                -2.000000000000000E+03
(PID.TID 0000.0001)     ;
(PID.TID 0000.0001) ivdc_kappa = /* Implicit Vertical Diffusivity for Convection ( m^2/s) */
(PID.TID 0000.0001)                 1.000000000000000E+00
(PID.TID 0000.0001)     ;
(PID.TID 0000.0001) hMixCriteria=  /* Criteria for mixed-layer diagnostic */
(PID.TID 0000.0001)                -8.000000000000000E-01
(PID.TID 0000.0001)     ;
(PID.TID 0000.0001) dRhoSmall =  /* Parameter for mixed-layer diagnostic */
(PID.TID 0000.0001)                 1.000000000000000E-06
(PID.TID 0000.0001)     ;
(PID.TID 0000.0001) hMixSmooth=  /* Smoothing parameter for mixed-layer diagnostic */
(PID.TID 0000.0001)                 0.000000000000000E+00
(PID.TID 0000.0001)     ;
(PID.TID 0000.0001) eosType =  /* Type of Equation of State */
(PID.TID 0000.0001)               'LINEAR'
(PID.TID 0000.0001)     ;
(PID.TID 0000.0001) tAlpha = /* Linear EOS thermal expansion coefficient ( 1/oC ) */
(PID.TID 0000.0001)                 2.000000000000000E-04
(PID.TID 0000.0001)     ;
(PID.TID 0000.0001) sBeta  = /* Linear EOS haline contraction coefficient ( 1/(g/kg) ) */
(PID.TID 0000.0001)                 7.400000000000000E-04
(PID.TID 0000.0001)     ;
(PID.TID 0000.0001) rhoNil    = /* Reference density for Linear EOS ( kg/m^3 ) */
(PID.TID 0000.0001)                 9.998000000000000E+02
(PID.TID 0000.0001)     ;
(PID.TID 0000.0001) selectP_inEOS_Zc = /* select pressure to use in EOS (0,1,2,3) */
(PID.TID 0000.0001)                       0
(PID.TID 0000.0001)     0= -g*rhoConst*z ; 1= pRef (from tRef,sRef); 2= Hyd P ; 3= Hyd+NH P
(PID.TID 0000.0001)     ;
(PID.TID 0000.0001) surf_pRef = /* Surface reference pressure ( Pa ) */
(PID.TID 0000.0001)                 1.013250000000000E+05
(PID.TID 0000.0001)     ;
(PID.TID 0000.0001) HeatCapacity_Cp =  /* Specific heat capacity ( J/kg/K ) */
(PID.TID 0000.0001)                 3.994000000000000E+03
(PID.TID 0000.0001)     ;
(PID.TID 0000.0001) celsius2K = /* 0 degree Celsius converted to Kelvin ( K ) */
(PID.TID 0000.0001)                 2.731500000000000E+02
(PID.TID 0000.0001)     ;
(PID.TID 0000.0001) rhoConst  = /* Reference density (Boussinesq)  ( kg/m^3 ) */
(PID.TID 0000.0001)                 9.998000000000000E+02
(PID.TID 0000.0001)     ;
(PID.TID 0000.0001) rhoFacC = /* normalized Reference density @ cell-Center (-) */
(PID.TID 0000.0001)    40 @  1.000000000000000E+00              /* K =  1: 40 */
(PID.TID 0000.0001)     ;
(PID.TID 0000.0001) rhoFacF = /* normalized Reference density @ W-Interface (-) */
(PID.TID 0000.0001)    41 @  1.000000000000000E+00              /* K =  1: 41 */
(PID.TID 0000.0001)     ;
(PID.TID 0000.0001) rhoConstFresh = /* Fresh-water reference density ( kg/m^3 ) */
(PID.TID 0000.0001)                 9.998000000000000E+02
(PID.TID 0000.0001)     ;
(PID.TID 0000.0001) gravity =   /* Gravitational acceleration ( m/s^2 ) */
(PID.TID 0000.0001)                 9.810000000000000E+00
(PID.TID 0000.0001)     ;
(PID.TID 0000.0001) gBaro =   /* Barotropic gravity ( m/s^2 ) */
(PID.TID 0000.0001)                 9.810000000000000E+00
(PID.TID 0000.0001)     ;
(PID.TID 0000.0001) gravFacC = /* gravity factor (vs surf.) @ cell-Center (-) */
(PID.TID 0000.0001)    40 @  1.000000000000000E+00              /* K =  1: 40 */
(PID.TID 0000.0001)     ;
(PID.TID 0000.0001) gravFacF = /* gravity factor (vs surf.) @ W-Interface (-) */
(PID.TID 0000.0001)    41 @  1.000000000000000E+00              /* K =  1: 41 */
(PID.TID 0000.0001)     ;
(PID.TID 0000.0001) rotationPeriod =   /* Rotation Period ( s ) */
(PID.TID 0000.0001)                 8.616400000000000E+04
(PID.TID 0000.0001)     ;
(PID.TID 0000.0001) omega =   /* Angular velocity ( rad/s ) */
(PID.TID 0000.0001)                 7.292123516990375E-05
(PID.TID 0000.0001)     ;
(PID.TID 0000.0001) f0 =   /* Reference coriolis parameter ( 1/s ) */
(PID.TID 0000.0001)                 6.940000000000000E-04
(PID.TID 0000.0001)     ;
(PID.TID 0000.0001) beta =   /* Beta ( 1/(m.s) ) */
(PID.TID 0000.0001)                 9.999999999999999E-12
(PID.TID 0000.0001)     ;
(PID.TID 0000.0001) fPrime =   /* Second coriolis parameter ( 1/s ) */
(PID.TID 0000.0001)                 0.000000000000000E+00
(PID.TID 0000.0001)     ;
(PID.TID 0000.0001) rigidLid =   /* Rigid lid on/off flag */
(PID.TID 0000.0001)                   F
(PID.TID 0000.0001)     ;
(PID.TID 0000.0001) implicitFreeSurface =   /* Implicit free surface on/off flag */
(PID.TID 0000.0001)                   T
(PID.TID 0000.0001)     ;
(PID.TID 0000.0001) freeSurfFac =   /* Implicit free surface factor */
(PID.TID 0000.0001)                 1.000000000000000E+00
(PID.TID 0000.0001)     ;
(PID.TID 0000.0001) implicSurfPress =  /* Surface Pressure implicit factor (0-1) */
(PID.TID 0000.0001)                 1.000000000000000E+00
(PID.TID 0000.0001)     ;
(PID.TID 0000.0001) implicDiv2DFlow =  /* Barot. Flow Div. implicit factor (0-1) */
(PID.TID 0000.0001)                 1.000000000000000E+00
(PID.TID 0000.0001)     ;
(PID.TID 0000.0001) uniformLin_PhiSurf = /* use uniform Bo_surf on/off flag */
(PID.TID 0000.0001)                   T
(PID.TID 0000.0001)     ;
(PID.TID 0000.0001) uniformFreeSurfLev = /* free-surface level-index is uniform */
(PID.TID 0000.0001)                   T
(PID.TID 0000.0001)     ;
(PID.TID 0000.0001) sIceLoadFac =  /* scale factor for sIceLoad (0-1) */
(PID.TID 0000.0001)                 1.000000000000000E+00
(PID.TID 0000.0001)     ;
(PID.TID 0000.0001) hFacMin =   /* minimum partial cell factor (hFac) */
(PID.TID 0000.0001)                 1.000000000000000E+00
(PID.TID 0000.0001)     ;
(PID.TID 0000.0001) hFacMinDr = /* minimum partial cell thickness ( m) */
(PID.TID 0000.0001)                 0.000000000000000E+00
(PID.TID 0000.0001)     ;
(PID.TID 0000.0001) exactConserv =  /* Exact Volume Conservation on/off flag */
(PID.TID 0000.0001)                   T
(PID.TID 0000.0001)     ;
(PID.TID 0000.0001) linFSConserveTr = /* Tracer correction for Lin Free Surface on/off flag */
(PID.TID 0000.0001)                   F
(PID.TID 0000.0001)     ;
(PID.TID 0000.0001) nonlinFreeSurf = /* Non-linear Free Surf. options (-1,0,1,2,3)*/
(PID.TID 0000.0001)                       0
(PID.TID 0000.0001)      -1,0= Off ; 1,2,3= On, 2=+rescale gU,gV, 3=+update cg2d solv.
(PID.TID 0000.0001)     ;
(PID.TID 0000.0001) hFacInf =   /* lower threshold for hFac (nonlinFreeSurf only)*/
(PID.TID 0000.0001)                 2.000000000000000E-01
(PID.TID 0000.0001)     ;
(PID.TID 0000.0001) hFacSup =   /* upper threshold for hFac (nonlinFreeSurf only)*/
(PID.TID 0000.0001)                 2.000000000000000E+00
(PID.TID 0000.0001)     ;
(PID.TID 0000.0001) select_rStar = /* r* Vertical coord. options (=0 r coord.; >0 uses r*)*/
(PID.TID 0000.0001)                       0
(PID.TID 0000.0001)     ;
(PID.TID 0000.0001) useRealFreshWaterFlux = /* Real Fresh Water Flux on/off flag*/
(PID.TID 0000.0001)                   F
(PID.TID 0000.0001)     ;
(PID.TID 0000.0001) temp_EvPrRn = /* Temp. of Evap/Prec/R (UNSET=use local T)(oC)*/
(PID.TID 0000.0001)                 1.234567000000000E+05
(PID.TID 0000.0001)     ;
(PID.TID 0000.0001) salt_EvPrRn = /* Salin. of Evap/Prec/R (UNSET=use local S)(g/kg)*/
(PID.TID 0000.0001)                 0.000000000000000E+00
(PID.TID 0000.0001)     ;
(PID.TID 0000.0001) selectAddFluid = /* option for mass source/sink of fluid (=0: off) */
(PID.TID 0000.0001)                       0
(PID.TID 0000.0001)     ;
(PID.TID 0000.0001) temp_addMass = /* Temp. of addMass array (UNSET=use local T)(oC)*/
(PID.TID 0000.0001)                 1.234567000000000E+05
(PID.TID 0000.0001)     ;
(PID.TID 0000.0001) salt_addMass = /* Salin. of addMass array (UNSET=use local S)(g/kg)*/
(PID.TID 0000.0001)                 0.000000000000000E+00
(PID.TID 0000.0001)     ;
(PID.TID 0000.0001) convertFW2Salt = /* convert F.W. Flux to Salt Flux (-1=use local S)(g/kg)*/
(PID.TID 0000.0001)                 3.500000000000000E+01
(PID.TID 0000.0001)     ;
(PID.TID 0000.0001) use3Dsolver = /* use 3-D pressure solver on/off flag */
(PID.TID 0000.0001)                   F
(PID.TID 0000.0001)     ;
(PID.TID 0000.0001) nonHydrostatic =  /* Non-Hydrostatic on/off flag */
(PID.TID 0000.0001)                   F
(PID.TID 0000.0001)     ;
(PID.TID 0000.0001) nh_Am2 = /* Non-Hydrostatic terms scaling factor */
(PID.TID 0000.0001)                 1.000000000000000E+00
(PID.TID 0000.0001)     ;
(PID.TID 0000.0001) implicitNHPress = /* Non-Hyd Pressure implicit factor (0-1)*/
(PID.TID 0000.0001)                 1.000000000000000E+00
(PID.TID 0000.0001)     ;
(PID.TID 0000.0001) selectNHfreeSurf = /* Non-Hyd (free-)Surface option */
(PID.TID 0000.0001)                       0
(PID.TID 0000.0001)     ;
(PID.TID 0000.0001) quasiHydrostatic = /* Quasi-Hydrostatic on/off flag */
(PID.TID 0000.0001)                   F
(PID.TID 0000.0001)     ;
(PID.TID 0000.0001) calc_wVelocity = /* vertical velocity calculation on/off flag */
(PID.TID 0000.0001)                   T
(PID.TID 0000.0001)     ;
(PID.TID 0000.0001) momStepping =  /* Momentum equation on/off flag */
(PID.TID 0000.0001)                   T
(PID.TID 0000.0001)     ;
(PID.TID 0000.0001) vectorInvariantMomentum= /* Vector-Invariant Momentum on/off */
(PID.TID 0000.0001)                   F
(PID.TID 0000.0001)     ;
(PID.TID 0000.0001) momAdvection =  /* Momentum advection on/off flag */
(PID.TID 0000.0001)                   T
(PID.TID 0000.0001)     ;
(PID.TID 0000.0001) momViscosity =  /* Momentum viscosity on/off flag */
(PID.TID 0000.0001)                   T
(PID.TID 0000.0001)     ;
(PID.TID 0000.0001) momImplVertAdv= /* Momentum implicit vert. advection on/off*/
(PID.TID 0000.0001)                   F
(PID.TID 0000.0001)     ;
(PID.TID 0000.0001) implicitViscosity = /* Implicit viscosity on/off flag */
(PID.TID 0000.0001)                   F
(PID.TID 0000.0001)     ;
(PID.TID 0000.0001) selectImplicitDrag= /* Implicit bot Drag options (0,1,2)*/
(PID.TID 0000.0001)                       0
(PID.TID 0000.0001)     0= Expl. ; 1= Impl. on provis. Vel ; 2= Fully Impl (with surf.P)
(PID.TID 0000.0001)     ;
(PID.TID 0000.0001) selectMetricTerms= /* Metric-Terms on/off flag (=0/1) */
(PID.TID 0000.0001)                       0
(PID.TID 0000.0001)     ;
(PID.TID 0000.0001) useNHMTerms = /* Non-Hydrostatic Metric-Terms on/off */
(PID.TID 0000.0001)                   F
(PID.TID 0000.0001)     ;
(PID.TID 0000.0001) selectCoriMap = /* Coriolis Map options (0,1,2,3)*/
(PID.TID 0000.0001)                       1
(PID.TID 0000.0001)     0= f-Plane ; 1= Beta-Plane ; 2= Spherical ; 3= read from file
(PID.TID 0000.0001)     ;
(PID.TID 0000.0001) select3dCoriScheme= /* 3-D Coriolis on/off flag (=0/1) */
(PID.TID 0000.0001)                       0
(PID.TID 0000.0001)     ;
(PID.TID 0000.0001) useCoriolis =  /* Coriolis on/off flag */
(PID.TID 0000.0001)                   T
(PID.TID 0000.0001)     ;
(PID.TID 0000.0001) useCDscheme =  /* CD scheme on/off flag */
(PID.TID 0000.0001)                   F
(PID.TID 0000.0001)     ;
(PID.TID 0000.0001) selectCoriScheme= /* Scheme selector for Coriolis-Term */
(PID.TID 0000.0001)                       0
(PID.TID 0000.0001)    = 0 : original discretization (simple averaging, no hFac)
(PID.TID 0000.0001)    = 1 : Wet-point averaging (Jamar & Ozer 1986)
(PID.TID 0000.0001)    = 2 : energy conserving scheme (no hFac weight)
(PID.TID 0000.0001)    = 3 : energy conserving scheme using Wet-point averaging
(PID.TID 0000.0001)     ;
(PID.TID 0000.0001) momForcing =  /* Momentum forcing on/off flag */
(PID.TID 0000.0001)                   T
(PID.TID 0000.0001)     ;
(PID.TID 0000.0001) momTidalForcing = /* Momentum Tidal forcing on/off flag */
(PID.TID 0000.0001)                   T
(PID.TID 0000.0001)     ;
(PID.TID 0000.0001) momPressureForcing =  /* Momentum pressure term on/off flag */
(PID.TID 0000.0001)                   T
(PID.TID 0000.0001)     ;
(PID.TID 0000.0001) implicitIntGravWave= /* Implicit Internal Gravity Wave flag */
(PID.TID 0000.0001)                   F
(PID.TID 0000.0001)     ;
(PID.TID 0000.0001) staggerTimeStep =    /* Stagger time stepping on/off flag */
(PID.TID 0000.0001)                   F
(PID.TID 0000.0001)     ;
(PID.TID 0000.0001) doResetHFactors = /* reset thickness factors @ each time-step */
(PID.TID 0000.0001)                   F
(PID.TID 0000.0001)     ;
(PID.TID 0000.0001) multiDimAdvection =  /* enable/disable Multi-Dim Advection */
(PID.TID 0000.0001)                   T
(PID.TID 0000.0001)     ;
(PID.TID 0000.0001) useMultiDimAdvec =   /* Multi-Dim Advection is/is-not used */
(PID.TID 0000.0001)                   F
(PID.TID 0000.0001)     ;
(PID.TID 0000.0001) implicitDiffusion = /* Implicit Diffusion on/off flag */
(PID.TID 0000.0001)                   T
(PID.TID 0000.0001)     ;
(PID.TID 0000.0001) tempStepping =  /* Temperature equation on/off flag */
(PID.TID 0000.0001)                   T
(PID.TID 0000.0001)     ;
(PID.TID 0000.0001) tempAdvection = /* Temperature advection on/off flag */
(PID.TID 0000.0001)                   T
(PID.TID 0000.0001)     ;
(PID.TID 0000.0001) tempImplVertAdv = /* Temp. implicit vert. advection on/off */
(PID.TID 0000.0001)                   F
(PID.TID 0000.0001)     ;
(PID.TID 0000.0001) tempForcing  =  /* Temperature forcing on/off flag */
(PID.TID 0000.0001)                   T
(PID.TID 0000.0001)     ;
(PID.TID 0000.0001) doThetaClimRelax = /* apply SST relaxation on/off flag */
(PID.TID 0000.0001)                   F
(PID.TID 0000.0001)     ;
(PID.TID 0000.0001) tempIsActiveTr = /* Temp. is a dynamically Active Tracer */
(PID.TID 0000.0001)                   T
(PID.TID 0000.0001)     ;
(PID.TID 0000.0001) saltStepping =  /* Salinity equation on/off flag */
(PID.TID 0000.0001)                   T
(PID.TID 0000.0001)     ;
(PID.TID 0000.0001) saltAdvection = /* Salinity advection on/off flag */
(PID.TID 0000.0001)                   T
(PID.TID 0000.0001)     ;
(PID.TID 0000.0001) saltImplVertAdv = /* Sali. implicit vert. advection on/off */
(PID.TID 0000.0001)                   F
(PID.TID 0000.0001)     ;
(PID.TID 0000.0001) saltForcing  =  /* Salinity forcing on/off flag */
(PID.TID 0000.0001)                   T
(PID.TID 0000.0001)     ;
(PID.TID 0000.0001) doSaltClimRelax = /* apply SSS relaxation on/off flag */
(PID.TID 0000.0001)                   F
(PID.TID 0000.0001)     ;
(PID.TID 0000.0001) saltIsActiveTr = /* Salt  is a dynamically Active Tracer */
(PID.TID 0000.0001)                   T
(PID.TID 0000.0001)     ;
(PID.TID 0000.0001)  readBinaryPrec = /* Precision used for reading binary files */
(PID.TID 0000.0001)                      64
(PID.TID 0000.0001)     ;
(PID.TID 0000.0001) writeBinaryPrec = /* Precision used for writing binary files */
(PID.TID 0000.0001)                      64
(PID.TID 0000.0001)     ;
(PID.TID 0000.0001)  rwSuffixType =   /* select format of mds file suffix */
(PID.TID 0000.0001)                       0
(PID.TID 0000.0001)    = 0 : myIter (I10.10) ;   = 1 : 100*myTime (100th sec) ;
(PID.TID 0000.0001)    = 2 : myTime (seconds);   = 3 : myTime/360 (10th of hr);
(PID.TID 0000.0001)    = 4 : myTime/3600 (hours)
(PID.TID 0000.0001)     ;
(PID.TID 0000.0001)  globalFiles = /* write "global" (=not per tile) files */
(PID.TID 0000.0001)                   F
(PID.TID 0000.0001)     ;
(PID.TID 0000.0001)  useSingleCpuIO = /* only master MPI process does I/O */
(PID.TID 0000.0001)                   T
(PID.TID 0000.0001)     ;
(PID.TID 0000.0001)  useSingleCpuInput = /* only master process reads input */
(PID.TID 0000.0001)                   T
(PID.TID 0000.0001)     ;
(PID.TID 0000.0001) /* debLev[*]  : level of debug & auxiliary message printing */
(PID.TID 0000.0001) debLevZero =  0 ; /* level of disabled aux. msg printing */
(PID.TID 0000.0001)    debLevA =  1 ; /* level of minimum  aux. msg printing */
(PID.TID 0000.0001)    debLevB =  2 ; /* level of low aux. print (report read-file opening)*/
(PID.TID 0000.0001)    debLevC =  3 ; /* level of moderate debug prt (most pkgs debug msg) */
(PID.TID 0000.0001)    debLevD =  4 ; /* level of enhanced debug prt (add DEBUG_STATS prt) */
(PID.TID 0000.0001)    debLevE =  5 ; /* level of extensive debug printing */
(PID.TID 0000.0001) debugLevel =  /* select debug printing level */
(PID.TID 0000.0001)                       2
(PID.TID 0000.0001)     ;
(PID.TID 0000.0001)  plotLevel =  /* select PLOT_FIELD printing level */
(PID.TID 0000.0001)                       2
(PID.TID 0000.0001)     ;
(PID.TID 0000.0001) //
(PID.TID 0000.0001) // Elliptic solver(s) paramters ( PARM02 in namelist )
(PID.TID 0000.0001) //
(PID.TID 0000.0001) cg2dMaxIters =   /* Upper limit on 2d con. grad iterations  */
(PID.TID 0000.0001)                    1000
(PID.TID 0000.0001)     ;
(PID.TID 0000.0001) cg2dMinItersNSA =   /* Minimum number of iterations of 2d con. grad solver  */
(PID.TID 0000.0001)                       0
(PID.TID 0000.0001)     ;
(PID.TID 0000.0001) cg2dUseMinResSol= /* use cg2d last-iter(=0) / min-resid.(=1) solution */
(PID.TID 0000.0001)                       0
(PID.TID 0000.0001)     ;
(PID.TID 0000.0001) cg2dTargetResidual =   /* 2d con. grad target residual  */
(PID.TID 0000.0001)                 1.000000000000000E-07
(PID.TID 0000.0001)     ;
(PID.TID 0000.0001) cg2dTargetResWunit =   /* CG2d target residual [W units] */
(PID.TID 0000.0001)                -1.000000000000000E+00
(PID.TID 0000.0001)     ;
(PID.TID 0000.0001) cg2dPreCondFreq =   /* Freq. for updating cg2d preconditioner */
(PID.TID 0000.0001)                       1
(PID.TID 0000.0001)     ;
(PID.TID 0000.0001) useSRCGSolver =  /* use single reduction CG solver(s) */
(PID.TID 0000.0001)                   F
(PID.TID 0000.0001)     ;
(PID.TID 0000.0001) useNSACGSolver =  /* use not-self-adjoint CG solver */
(PID.TID 0000.0001)                   F
(PID.TID 0000.0001)     ;
(PID.TID 0000.0001) printResidualFreq = /* Freq. for printing CG residual */
(PID.TID 0000.0001)                       0
(PID.TID 0000.0001)     ;
(PID.TID 0000.0001) //
(PID.TID 0000.0001) // Time stepping paramters ( PARM03 in namelist )
(PID.TID 0000.0001) //
(PID.TID 0000.0001) deltaTMom =   /* Momentum equation timestep ( s ) */
(PID.TID 0000.0001)                 6.000000000000000E+01
(PID.TID 0000.0001)     ;
(PID.TID 0000.0001) deltaTFreeSurf = /* FreeSurface equation timestep ( s ) */
(PID.TID 0000.0001)                 6.000000000000000E+01
(PID.TID 0000.0001)     ;
(PID.TID 0000.0001) dTtracerLev =  /* Tracer equation timestep ( s ) */
(PID.TID 0000.0001)    40 @  6.000000000000000E+01              /* K =  1: 40 */
(PID.TID 0000.0001)     ;
(PID.TID 0000.0001) deltaTClock  =   /* Model clock timestep ( s ) */
(PID.TID 0000.0001)                 6.000000000000000E+01
(PID.TID 0000.0001)     ;
(PID.TID 0000.0001) cAdjFreq =   /* Convective adjustment interval ( s ) */
(PID.TID 0000.0001)                 0.000000000000000E+00
(PID.TID 0000.0001)     ;
(PID.TID 0000.0001) momForcingOutAB = /* =1: take Momentum Forcing out of Adams-Bash. stepping */
(PID.TID 0000.0001)                       0
(PID.TID 0000.0001)     ;
(PID.TID 0000.0001) tracForcingOutAB = /* =1: take T,S,pTr Forcing out of Adams-Bash. stepping */
(PID.TID 0000.0001)                       0
(PID.TID 0000.0001)     ;
(PID.TID 0000.0001) momDissip_In_AB = /* put Dissipation Tendency in Adams-Bash. stepping */
(PID.TID 0000.0001)                   T
(PID.TID 0000.0001)     ;
(PID.TID 0000.0001) doAB_onGtGs = /* apply AB on Tendencies (rather than on T,S)*/
(PID.TID 0000.0001)                   T
(PID.TID 0000.0001)     ;
(PID.TID 0000.0001) abEps =   /* Adams-Bashforth-2 stabilizing weight */
(PID.TID 0000.0001)                 1.000000000000000E-02
(PID.TID 0000.0001)     ;
(PID.TID 0000.0001) applyExchUV_early = /* Apply EXCH to U,V earlier in time-step */
(PID.TID 0000.0001)                   F
(PID.TID 0000.0001)     ;
(PID.TID 0000.0001) pickupSuff = /* Suffix of pickup-file to restart from */
(PID.TID 0000.0001)               'ckptA     '
(PID.TID 0000.0001)     ;
(PID.TID 0000.0001) pickupStrictlyMatch= /* stop if pickup do not strictly match */
(PID.TID 0000.0001)                   T
(PID.TID 0000.0001)     ;
(PID.TID 0000.0001) nIter0   =   /* Run starting timestep number */
(PID.TID 0000.0001)                     600
(PID.TID 0000.0001)     ;
(PID.TID 0000.0001) nTimeSteps = /* Number of timesteps */
(PID.TID 0000.0001)                     600
(PID.TID 0000.0001)     ;
(PID.TID 0000.0001) nEndIter =   /* Run ending timestep number */
(PID.TID 0000.0001)                    1200
(PID.TID 0000.0001)     ;
(PID.TID 0000.0001) baseTime =   /* Model base time ( s ) */
(PID.TID 0000.0001)                 0.000000000000000E+00
(PID.TID 0000.0001)     ;
(PID.TID 0000.0001) startTime =  /* Run start time ( s ) */
(PID.TID 0000.0001)                 3.600000000000000E+04
(PID.TID 0000.0001)     ;
(PID.TID 0000.0001) endTime  =   /* Integration ending time ( s ) */
(PID.TID 0000.0001)                 7.200000000000000E+04
(PID.TID 0000.0001)     ;
(PID.TID 0000.0001) pChkPtFreq = /* Permanent restart/pickup file interval ( s ) */
(PID.TID 0000.0001)                 0.000000000000000E+00
(PID.TID 0000.0001)     ;
(PID.TID 0000.0001) chkPtFreq  = /* Rolling restart/pickup file interval ( s ) */
(PID.TID 0000.0001)                 4.320000000000000E+04
(PID.TID 0000.0001)     ;
(PID.TID 0000.0001) pickup_write_mdsio =   /* Model IO flag. */
(PID.TID 0000.0001)                   T
(PID.TID 0000.0001)     ;
(PID.TID 0000.0001) pickup_read_mdsio =   /* Model IO flag. */
(PID.TID 0000.0001)                   T
(PID.TID 0000.0001)     ;
(PID.TID 0000.0001) pickup_write_mnc =   /* Model IO flag. */
(PID.TID 0000.0001)                   F
(PID.TID 0000.0001)     ;
(PID.TID 0000.0001) pickup_read_mnc =   /* Model IO flag. */
(PID.TID 0000.0001)                   F
(PID.TID 0000.0001)     ;
(PID.TID 0000.0001) writePickupAtEnd =   /* Model IO flag. */
(PID.TID 0000.0001)                   T
(PID.TID 0000.0001)     ;
(PID.TID 0000.0001) dumpFreq =   /* Model state write out interval ( s ). */
(PID.TID 0000.0001)                 1.200000000000000E+03
(PID.TID 0000.0001)     ;
(PID.TID 0000.0001) dumpInitAndLast= /* write out Initial & Last iter. model state */
(PID.TID 0000.0001)                   T
(PID.TID 0000.0001)     ;
(PID.TID 0000.0001) snapshot_mdsio =   /* Model IO flag. */
(PID.TID 0000.0001)                   F
(PID.TID 0000.0001)     ;
(PID.TID 0000.0001) snapshot_mnc =   /* Model IO flag. */
(PID.TID 0000.0001)                   T
(PID.TID 0000.0001)     ;
(PID.TID 0000.0001) monitorFreq =   /* Monitor output interval ( s ). */
(PID.TID 0000.0001)                 1.200000000000000E+03
(PID.TID 0000.0001)     ;
(PID.TID 0000.0001) monitorSelect = /* select group of variables to monitor */
(PID.TID 0000.0001)                       2
(PID.TID 0000.0001)     ;
(PID.TID 0000.0001) monitor_stdio =   /* Model IO flag. */
(PID.TID 0000.0001)                   T
(PID.TID 0000.0001)     ;
(PID.TID 0000.0001) monitor_mnc =   /* Model IO flag. */
(PID.TID 0000.0001)                   F
(PID.TID 0000.0001)     ;
(PID.TID 0000.0001) externForcingPeriod =   /* forcing period (s) */
(PID.TID 0000.0001)                 0.000000000000000E+00
(PID.TID 0000.0001)     ;
(PID.TID 0000.0001) externForcingCycle =   /* period of the cyle (s). */
(PID.TID 0000.0001)                 0.000000000000000E+00
(PID.TID 0000.0001)     ;
(PID.TID 0000.0001) tauThetaClimRelax =   /* relaxation time scale (s) */
(PID.TID 0000.0001)                 0.000000000000000E+00
(PID.TID 0000.0001)     ;
(PID.TID 0000.0001) tauSaltClimRelax =   /* relaxation time scale (s) */
(PID.TID 0000.0001)                 0.000000000000000E+00
(PID.TID 0000.0001)     ;
(PID.TID 0000.0001) latBandClimRelax =   /* max. Lat. where relaxation */
(PID.TID 0000.0001)                 1.264022399999999E+06
(PID.TID 0000.0001)     ;
(PID.TID 0000.0001) //
(PID.TID 0000.0001) // Gridding paramters ( PARM04 in namelist )
(PID.TID 0000.0001) //
(PID.TID 0000.0001) usingCartesianGrid = /* Cartesian coordinates flag ( True/False ) */
(PID.TID 0000.0001)                   T
(PID.TID 0000.0001)     ;
(PID.TID 0000.0001) usingCylindricalGrid = /* Cylindrical coordinates flag ( True/False ) */
(PID.TID 0000.0001)                   F
(PID.TID 0000.0001)     ;
(PID.TID 0000.0001) usingSphericalPolarGrid = /* Spherical coordinates flag ( True/False ) */
(PID.TID 0000.0001)                   F
(PID.TID 0000.0001)     ;
(PID.TID 0000.0001) usingCurvilinearGrid = /* Curvilinear coordinates flag ( True/False ) */
(PID.TID 0000.0001)                   F
(PID.TID 0000.0001)     ;
(PID.TID 0000.0001) useMin4hFacEdges = /* set hFacW,S as minimum of adjacent hFacC factor */
(PID.TID 0000.0001)                   F
(PID.TID 0000.0001)     ;
(PID.TID 0000.0001) interViscAr_pCell = /* account for partial-cell in interior vert. viscosity */
(PID.TID 0000.0001)                   F
(PID.TID 0000.0001)     ;
(PID.TID 0000.0001) interDiffKr_pCell = /* account for partial-cell in interior vert. diffusion */
(PID.TID 0000.0001)                   F
(PID.TID 0000.0001)     ;
(PID.TID 0000.0001) pCellMix_select = /* option to enhance mixing near surface & bottom */
(PID.TID 0000.0001)                       0
(PID.TID 0000.0001)     ;
(PID.TID 0000.0001) selectSigmaCoord = /* Hybrid-Sigma Vert. Coordinate option */
(PID.TID 0000.0001)                       0
(PID.TID 0000.0001)     ;
(PID.TID 0000.0001) rSigmaBnd = /* r/sigma transition ( units of r ==  m ) */
(PID.TID 0000.0001)                 1.234567000000000E+05
(PID.TID 0000.0001)     ;
(PID.TID 0000.0001) rkSign =   /* index orientation relative to vertical coordinate */
(PID.TID 0000.0001)                -1.000000000000000E+00
(PID.TID 0000.0001)     ;
(PID.TID 0000.0001) gravitySign = /* gravity orientation relative to vertical coordinate */
(PID.TID 0000.0001)                -1.000000000000000E+00
(PID.TID 0000.0001)     ;
(PID.TID 0000.0001) seaLev_Z =  /* reference height of sea-level [m] */
(PID.TID 0000.0001)                 0.000000000000000E+00
(PID.TID 0000.0001)     ;
(PID.TID 0000.0001) top_Pres =  /* reference pressure at the top [Pa] */
(PID.TID 0000.0001)                 0.000000000000000E+00
(PID.TID 0000.0001)     ;
(PID.TID 0000.0001) mass2rUnit = /* convert mass per unit area [kg/m2] to r-units [m] */
(PID.TID 0000.0001)                 1.000200040008002E-03
(PID.TID 0000.0001)     ;
(PID.TID 0000.0001) rUnit2mass = /* convert r-units [m] to mass per unit area [kg/m2] */
(PID.TID 0000.0001)                 9.998000000000000E+02
(PID.TID 0000.0001)     ;
(PID.TID 0000.0001) drC =   /* C spacing ( units of r ) */
(PID.TID 0000.0001)                 1.000000000000000E+00,      /* K =  1 */
(PID.TID 0000.0001)                 2.100000000000000E+00,      /* K =  2 */
(PID.TID 0000.0001)                 2.300000000000000E+00,      /* K =  3 */
(PID.TID 0000.0001)                 2.550000000000000E+00,      /* K =  4 */
(PID.TID 0000.0001)                 2.850000000000000E+00,      /* K =  5 */
(PID.TID 0000.0001)                 3.150000000000000E+00,      /* K =  6 */
(PID.TID 0000.0001)                 3.450000000000000E+00,      /* K =  7 */
(PID.TID 0000.0001)                 3.800000000000000E+00,      /* K =  8 */
(PID.TID 0000.0001)                 4.200000000000000E+00,      /* K =  9 */
(PID.TID 0000.0001)                 4.650000000000000E+00,      /* K = 10 */
(PID.TID 0000.0001)                 5.150000000000000E+00,      /* K = 11 */
(PID.TID 0000.0001)                 5.700000000000000E+00,      /* K = 12 */
(PID.TID 0000.0001)                 6.300000000000000E+00,      /* K = 13 */
(PID.TID 0000.0001)                 6.949999999999999E+00,      /* K = 14 */
(PID.TID 0000.0001)                 7.650000000000000E+00,      /* K = 15 */
(PID.TID 0000.0001)                 8.449999999999999E+00,      /* K = 16 */
(PID.TID 0000.0001)                 9.350000000000001E+00,      /* K = 17 */
(PID.TID 0000.0001)                 1.030000000000000E+01,      /* K = 18 */
(PID.TID 0000.0001)                 1.140000000000000E+01,      /* K = 19 */
(PID.TID 0000.0001)                 1.260000000000000E+01,      /* K = 20 */
(PID.TID 0000.0001)                 1.390000000000000E+01,      /* K = 21 */
(PID.TID 0000.0001)                 1.535000000000000E+01,      /* K = 22 */
(PID.TID 0000.0001)                 1.695000000000000E+01,      /* K = 23 */
(PID.TID 0000.0001)                 1.875000000000000E+01,      /* K = 24 */
(PID.TID 0000.0001)                 2.070000000000000E+01,      /* K = 25 */
(PID.TID 0000.0001)                 2.285000000000000E+01,      /* K = 26 */
(PID.TID 0000.0001)                 2.525000000000000E+01,      /* K = 27 */
(PID.TID 0000.0001)                 2.790000000000000E+01,      /* K = 28 */
(PID.TID 0000.0001)                 3.080000000000000E+01,      /* K = 29 */
(PID.TID 0000.0001)                 3.400000000000000E+01,      /* K = 30 */
(PID.TID 0000.0001)                 3.755000000000000E+01,      /* K = 31 */
(PID.TID 0000.0001)                 4.150000000000000E+01,      /* K = 32 */
(PID.TID 0000.0001)                 4.585000000000000E+01,      /* K = 33 */
(PID.TID 0000.0001)                 5.060000000000000E+01,      /* K = 34 */
(PID.TID 0000.0001)                 5.590000000000001E+01,      /* K = 35 */
(PID.TID 0000.0001)                 6.175000000000000E+01,      /* K = 36 */
(PID.TID 0000.0001)                 6.819999999999999E+01,      /* K = 37 */
(PID.TID 0000.0001)                 7.534999999999999E+01,      /* K = 38 */
(PID.TID 0000.0001)                 8.309999999999999E+01,      /* K = 39 */
(PID.TID 0000.0001)                 9.169999999999999E+01,      /* K = 40 */
(PID.TID 0000.0001)                 4.815000000000000E+01       /* K = 41 */
(PID.TID 0000.0001)     ;
(PID.TID 0000.0001) drF =   /* W spacing ( units of r ) */
(PID.TID 0000.0001)                 2.000000000000000E+00,      /* K =  1 */
(PID.TID 0000.0001)                 2.200000000000000E+00,      /* K =  2 */
(PID.TID 0000.0001)                 2.400000000000000E+00,      /* K =  3 */
(PID.TID 0000.0001)                 2.700000000000000E+00,      /* K =  4 */
(PID.TID 0000.0001)                 3.000000000000000E+00,      /* K =  5 */
(PID.TID 0000.0001)                 3.300000000000000E+00,      /* K =  6 */
(PID.TID 0000.0001)                 3.600000000000000E+00,      /* K =  7 */
(PID.TID 0000.0001)                 4.000000000000000E+00,      /* K =  8 */
(PID.TID 0000.0001)                 4.400000000000000E+00,      /* K =  9 */
(PID.TID 0000.0001)                 4.900000000000000E+00,      /* K = 10 */
(PID.TID 0000.0001)                 5.400000000000000E+00,      /* K = 11 */
(PID.TID 0000.0001)                 6.000000000000000E+00,      /* K = 12 */
(PID.TID 0000.0001)                 6.600000000000000E+00,      /* K = 13 */
(PID.TID 0000.0001)                 7.300000000000000E+00,      /* K = 14 */
(PID.TID 0000.0001)                 8.000000000000000E+00,      /* K = 15 */
(PID.TID 0000.0001)                 8.900000000000000E+00,      /* K = 16 */
(PID.TID 0000.0001)                 9.800000000000001E+00,      /* K = 17 */
(PID.TID 0000.0001)                 1.080000000000000E+01,      /* K = 18 */
(PID.TID 0000.0001)                 1.200000000000000E+01,      /* K = 19 */
(PID.TID 0000.0001)                 1.320000000000000E+01,      /* K = 20 */
(PID.TID 0000.0001)                 1.460000000000000E+01,      /* K = 21 */
(PID.TID 0000.0001)                 1.610000000000000E+01,      /* K = 22 */
(PID.TID 0000.0001)                 1.780000000000000E+01,      /* K = 23 */
(PID.TID 0000.0001)                 1.970000000000000E+01,      /* K = 24 */
(PID.TID 0000.0001)                 2.170000000000000E+01,      /* K = 25 */
(PID.TID 0000.0001)                 2.400000000000000E+01,      /* K = 26 */
(PID.TID 0000.0001)                 2.650000000000000E+01,      /* K = 27 */
(PID.TID 0000.0001)                 2.930000000000000E+01,      /* K = 28 */
(PID.TID 0000.0001)                 3.230000000000000E+01,      /* K = 29 */
(PID.TID 0000.0001)                 3.570000000000000E+01,      /* K = 30 */
(PID.TID 0000.0001)                 3.940000000000000E+01,      /* K = 31 */
(PID.TID 0000.0001)                 4.360000000000000E+01,      /* K = 32 */
(PID.TID 0000.0001)                 4.810000000000000E+01,      /* K = 33 */
(PID.TID 0000.0001)                 5.310000000000000E+01,      /* K = 34 */
(PID.TID 0000.0001)                 5.870000000000000E+01,      /* K = 35 */
(PID.TID 0000.0001)                 6.480000000000000E+01,      /* K = 36 */
(PID.TID 0000.0001)                 7.159999999999999E+01,      /* K = 37 */
(PID.TID 0000.0001)                 7.909999999999999E+01,      /* K = 38 */
(PID.TID 0000.0001)                 8.709999999999999E+01,      /* K = 39 */
(PID.TID 0000.0001)                 9.630000000000000E+01       /* K = 40 */
(PID.TID 0000.0001)     ;
(PID.TID 0000.0001) delX = /* U spacing ( m - cartesian, degrees - spherical ) */
(PID.TID 0000.0001)                 1.991600000000006E+03,      /* I =  1 */
(PID.TID 0000.0001)                 1.991699999999983E+03,      /* I =  2 */
(PID.TID 0000.0001)                 1.991600000000006E+03,      /* I =  3 */
(PID.TID 0000.0001)      . . .
(PID.TID 0000.0001)                 1.991600000000006E+03,      /* I = 58 */
(PID.TID 0000.0001)                 1.991699999999997E+03,      /* I = 59 */
(PID.TID 0000.0001)                 1.991599999999991E+03,      /* I = 60 */
(PID.TID 0000.0001)                 1.991600000000006E+03,      /* I = 61 */
(PID.TID 0000.0001)                 1.991699999999997E+03,      /* I = 62 */
(PID.TID 0000.0001)                 1.991600000000006E+03,      /* I = 63 */
(PID.TID 0000.0001)      . . .
(PID.TID 0000.0001)                 1.991700000000000E+03,      /* I =118 */
(PID.TID 0000.0001)                 1.991600000000000E+03,      /* I =119 */
(PID.TID 0000.0001)                 1.991600000000000E+03,      /* I =120 */
(PID.TID 0000.0001)                 1.991600000000000E+03,      /* I =121 */
(PID.TID 0000.0001)                 1.991700000000000E+03,      /* I =122 */
(PID.TID 0000.0001)                 1.991599999999999E+03,      /* I =123 */
(PID.TID 0000.0001)      . . .
(PID.TID 0000.0001)                 1.991699999999997E+03,      /* I =178 */
(PID.TID 0000.0001)                 1.991600000000006E+03,      /* I =179 */
(PID.TID 0000.0001)                 1.991599999999991E+03,      /* I =180 */
(PID.TID 0000.0001)                 1.991699999999997E+03,      /* I =181 */
(PID.TID 0000.0001)                 1.991600000000006E+03,      /* I =182 */
(PID.TID 0000.0001)                 1.991600000000006E+03,      /* I =183 */
(PID.TID 0000.0001)      . . .
(PID.TID 0000.0001)                 1.991699999999983E+03,      /* I =238 */
(PID.TID 0000.0001)                 1.991600000000006E+03,      /* I =239 */
(PID.TID 0000.0001)                 1.991600000000006E+03       /* I =240 */
(PID.TID 0000.0001)     ;
(PID.TID 0000.0001) delY = /* V spacing ( m - cartesian, degrees - spherical ) */
(PID.TID 0000.0001)                 2.340800000000003E+03,      /* J =  1 */
(PID.TID 0000.0001)                 2.340799999999996E+03,      /* J =  2 */
(PID.TID 0000.0001)                 2.340700000000004E+03,      /* J =  3 */
(PID.TID 0000.0001)      . . .
(PID.TID 0000.0001)                 2.340799999999996E+03,      /* J = 43 */
(PID.TID 0000.0001)                 2.340800000000003E+03,      /* J = 44 */
(PID.TID 0000.0001)                 2.340799999999996E+03,      /* J = 45 */
(PID.TID 0000.0001)                 2.340800000000003E+03,      /* J = 46 */
(PID.TID 0000.0001)                 2.340800000000003E+03,      /* J = 47 */
(PID.TID 0000.0001)                 2.340699999999997E+03,      /* J = 48 */
(PID.TID 0000.0001)      . . .
(PID.TID 0000.0001)                 2.340799999999988E+03,      /* J = 88 */
(PID.TID 0000.0001)                 2.340800000000017E+03,      /* J = 89 */
(PID.TID 0000.0001)                 2.340799999999988E+03,      /* J = 90 */
(PID.TID 0000.0001)                 2.340800000000017E+03,      /* J = 91 */
(PID.TID 0000.0001)                 2.340799999999988E+03,      /* J = 92 */
(PID.TID 0000.0001)                 2.340700000000012E+03,      /* J = 93 */
(PID.TID 0000.0001)      . . .
(PID.TID 0000.0001)                 2.340799999999988E+03,      /* J =133 */
(PID.TID 0000.0001)                 2.340799999999988E+03,      /* J =134 */
(PID.TID 0000.0001)                 2.340800000000017E+03,      /* J =135 */
(PID.TID 0000.0001)                 2.340799999999988E+03,      /* J =136 */
(PID.TID 0000.0001)                 2.340800000000017E+03,      /* J =137 */
(PID.TID 0000.0001)                 2.340699999999983E+03,      /* J =138 */
(PID.TID 0000.0001)      . . .
(PID.TID 0000.0001)                 2.340799999999988E+03,      /* J =178 */
(PID.TID 0000.0001)                 2.340799999999988E+03,      /* J =179 */
(PID.TID 0000.0001)                 2.340799999999988E+03       /* J =180 */
(PID.TID 0000.0001)     ;
(PID.TID 0000.0001) xgOrigin = /* X-axis origin of West  edge (cartesian: m, lat-lon: deg) */
(PID.TID 0000.0001)                -2.380000000000000E+05
(PID.TID 0000.0001)     ;
(PID.TID 0000.0001) ygOrigin = /* Y-axis origin of South edge (cartesian: m, lat-lon: deg) */
(PID.TID 0000.0001)                -6.200000000000000E+04
(PID.TID 0000.0001)     ;
(PID.TID 0000.0001) rSphere =  /* Radius ( ignored - cartesian, m - spherical ) */
(PID.TID 0000.0001)                 6.370000000000000E+06
(PID.TID 0000.0001)     ;
(PID.TID 0000.0001) deepAtmosphere = /* Deep/Shallow Atmosphere flag (True/False) */
(PID.TID 0000.0001)                   F
(PID.TID 0000.0001)     ;
(PID.TID 0000.0001) xC =  /* xC(:,1,:,1) : P-point X coord ( deg. or m if cartesian) */
(PID.TID 0000.0001)                -2.370042000000000E+05,      /* I =  1 */
(PID.TID 0000.0001)                -2.350125500000000E+05,      /* I =  2 */
(PID.TID 0000.0001)                -2.330209000000000E+05,      /* I =  3 */
(PID.TID 0000.0001)      . . .
(PID.TID 0000.0001)                -1.234812000000000E+05,      /* I = 58 */
(PID.TID 0000.0001)                -1.214895500000000E+05,      /* I = 59 */
(PID.TID 0000.0001)                -1.194979000000000E+05,      /* I = 60 */
(PID.TID 0000.0001)                -1.175063000000000E+05,      /* I = 61 */
(PID.TID 0000.0001)                -1.155146500000000E+05,      /* I = 62 */
(PID.TID 0000.0001)                -1.135230000000000E+05,      /* I = 63 */
(PID.TID 0000.0001)      . . .
(PID.TID 0000.0001)                -3.983250000000000E+03,      /* I =118 */
(PID.TID 0000.0001)                -1.991600000000000E+03,      /* I =119 */
(PID.TID 0000.0001)                 0.000000000000000E+00,      /* I =120 */
(PID.TID 0000.0001)                 1.991600000000000E+03,      /* I =121 */
(PID.TID 0000.0001)                 3.983250000000000E+03,      /* I =122 */
(PID.TID 0000.0001)                 5.974900000000001E+03,      /* I =123 */
(PID.TID 0000.0001)      . . .
(PID.TID 0000.0001)                 1.155146500000000E+05,      /* I =178 */
(PID.TID 0000.0001)                 1.175063000000000E+05,      /* I =179 */
(PID.TID 0000.0001)                 1.194979000000000E+05,      /* I =180 */
(PID.TID 0000.0001)                 1.214895500000000E+05,      /* I =181 */
(PID.TID 0000.0001)                 1.234812000000000E+05,      /* I =182 */
(PID.TID 0000.0001)                 1.254728000000000E+05,      /* I =183 */
(PID.TID 0000.0001)      . . .
(PID.TID 0000.0001)                 2.350125500000000E+05,      /* I =238 */
(PID.TID 0000.0001)                 2.370042000000000E+05,      /* I =239 */
(PID.TID 0000.0001)                 2.389958000000000E+05       /* I =240 */
(PID.TID 0000.0001)     ;
(PID.TID 0000.0001) yC =  /* yC(1,:,1,:) : P-point Y coord ( deg. or m if cartesian) */
(PID.TID 0000.0001)                -6.082960000000001E+04,      /* J =  1 */
(PID.TID 0000.0001)                -5.848880000000000E+04,      /* J =  2 */
(PID.TID 0000.0001)                -5.614805000000000E+04,      /* J =  3 */
(PID.TID 0000.0001)      . . .
(PID.TID 0000.0001)                 3.748320000000000E+04,      /* J = 43 */
(PID.TID 0000.0001)                 3.982400000000000E+04,      /* J = 44 */
(PID.TID 0000.0001)                 4.216480000000000E+04,      /* J = 45 */
(PID.TID 0000.0001)                 4.450560000000000E+04,      /* J = 46 */
(PID.TID 0000.0001)                 4.684639999999999E+04,      /* J = 47 */
(PID.TID 0000.0001)                 4.918715000000000E+04,      /* J = 48 */
(PID.TID 0000.0001)      . . .
(PID.TID 0000.0001)                 1.428184000000000E+05,      /* J = 88 */
(PID.TID 0000.0001)                 1.451592000000000E+05,      /* J = 89 */
(PID.TID 0000.0001)                 1.475000000000000E+05,      /* J = 90 */
(PID.TID 0000.0001)                 1.498408000000000E+05,      /* J = 91 */
(PID.TID 0000.0001)                 1.521816000000000E+05,      /* J = 92 */
(PID.TID 0000.0001)                 1.545223500000000E+05,      /* J = 93 */
(PID.TID 0000.0001)      . . .
(PID.TID 0000.0001)                 2.481536000000000E+05,      /* J =133 */
(PID.TID 0000.0001)                 2.504944000000000E+05,      /* J =134 */
(PID.TID 0000.0001)                 2.528352000000000E+05,      /* J =135 */
(PID.TID 0000.0001)                 2.551760000000000E+05,      /* J =136 */
(PID.TID 0000.0001)                 2.575168000000000E+05,      /* J =137 */
(PID.TID 0000.0001)                 2.598575500000000E+05,      /* J =138 */
(PID.TID 0000.0001)      . . .
(PID.TID 0000.0001)                 3.534888000000000E+05,      /* J =178 */
(PID.TID 0000.0001)                 3.558296000000000E+05,      /* J =179 */
(PID.TID 0000.0001)                 3.581704000000000E+05       /* J =180 */
(PID.TID 0000.0001)     ;
(PID.TID 0000.0001) rcoord = /* P-point R coordinate (  units of r ) */
(PID.TID 0000.0001)                -1.000000000000000E+00,      /* K =  1 */
(PID.TID 0000.0001)                -3.100000000000000E+00,      /* K =  2 */
(PID.TID 0000.0001)                -5.400000000000000E+00,      /* K =  3 */
(PID.TID 0000.0001)                -7.950000000000000E+00,      /* K =  4 */
(PID.TID 0000.0001)                -1.080000000000000E+01,      /* K =  5 */
(PID.TID 0000.0001)                -1.395000000000000E+01,      /* K =  6 */
(PID.TID 0000.0001)                -1.740000000000000E+01,      /* K =  7 */
(PID.TID 0000.0001)                -2.120000000000000E+01,      /* K =  8 */
(PID.TID 0000.0001)                -2.540000000000000E+01,      /* K =  9 */
(PID.TID 0000.0001)                -3.005000000000000E+01,      /* K = 10 */
(PID.TID 0000.0001)                -3.520000000000000E+01,      /* K = 11 */
(PID.TID 0000.0001)                -4.090000000000001E+01,      /* K = 12 */
(PID.TID 0000.0001)                -4.720000000000000E+01,      /* K = 13 */
(PID.TID 0000.0001)                -5.415000000000001E+01,      /* K = 14 */
(PID.TID 0000.0001)                -6.180000000000000E+01,      /* K = 15 */
(PID.TID 0000.0001)                -7.025000000000000E+01,      /* K = 16 */
(PID.TID 0000.0001)                -7.959999999999999E+01,      /* K = 17 */
(PID.TID 0000.0001)                -8.989999999999999E+01,      /* K = 18 */
(PID.TID 0000.0001)                -1.013000000000000E+02,      /* K = 19 */
(PID.TID 0000.0001)                -1.139000000000000E+02,      /* K = 20 */
(PID.TID 0000.0001)                -1.278000000000000E+02,      /* K = 21 */
(PID.TID 0000.0001)                -1.431500000000000E+02,      /* K = 22 */
(PID.TID 0000.0001)                -1.601000000000000E+02,      /* K = 23 */
(PID.TID 0000.0001)                -1.788500000000000E+02,      /* K = 24 */
(PID.TID 0000.0001)                -1.995500000000000E+02,      /* K = 25 */
(PID.TID 0000.0001)                -2.223999999999999E+02,      /* K = 26 */
(PID.TID 0000.0001)                -2.476499999999999E+02,      /* K = 27 */
(PID.TID 0000.0001)                -2.755500000000000E+02,      /* K = 28 */
(PID.TID 0000.0001)                -3.063500000000000E+02,      /* K = 29 */
(PID.TID 0000.0001)                -3.403500000000000E+02,      /* K = 30 */
(PID.TID 0000.0001)                -3.779000000000000E+02,      /* K = 31 */
(PID.TID 0000.0001)                -4.194000000000000E+02,      /* K = 32 */
(PID.TID 0000.0001)                -4.652500000000000E+02,      /* K = 33 */
(PID.TID 0000.0001)                -5.158500000000000E+02,      /* K = 34 */
(PID.TID 0000.0001)                -5.717500000000000E+02,      /* K = 35 */
(PID.TID 0000.0001)                -6.335000000000000E+02,      /* K = 36 */
(PID.TID 0000.0001)                -7.017000000000000E+02,      /* K = 37 */
(PID.TID 0000.0001)                -7.770500000000001E+02,      /* K = 38 */
(PID.TID 0000.0001)                -8.601500000000001E+02,      /* K = 39 */
(PID.TID 0000.0001)                -9.518500000000001E+02       /* K = 40 */
(PID.TID 0000.0001)     ;
(PID.TID 0000.0001) rF =   /* W-Interf. R coordinate (  units of r ) */
(PID.TID 0000.0001)                 0.000000000000000E+00,      /* K =  1 */
(PID.TID 0000.0001)                -2.000000000000000E+00,      /* K =  2 */
(PID.TID 0000.0001)                -4.200000000000000E+00,      /* K =  3 */
(PID.TID 0000.0001)                -6.600000000000000E+00,      /* K =  4 */
(PID.TID 0000.0001)                -9.300000000000001E+00,      /* K =  5 */
(PID.TID 0000.0001)                -1.230000000000000E+01,      /* K =  6 */
(PID.TID 0000.0001)                -1.560000000000000E+01,      /* K =  7 */
(PID.TID 0000.0001)                -1.920000000000000E+01,      /* K =  8 */
(PID.TID 0000.0001)                -2.320000000000000E+01,      /* K =  9 */
(PID.TID 0000.0001)                -2.760000000000000E+01,      /* K = 10 */
(PID.TID 0000.0001)                -3.250000000000000E+01,      /* K = 11 */
(PID.TID 0000.0001)                -3.790000000000000E+01,      /* K = 12 */
(PID.TID 0000.0001)                -4.390000000000000E+01,      /* K = 13 */
(PID.TID 0000.0001)                -5.050000000000000E+01,      /* K = 14 */
(PID.TID 0000.0001)                -5.780000000000000E+01,      /* K = 15 */
(PID.TID 0000.0001)                -6.580000000000000E+01,      /* K = 16 */
(PID.TID 0000.0001)                -7.470000000000000E+01,      /* K = 17 */
(PID.TID 0000.0001)                -8.450000000000000E+01,      /* K = 18 */
(PID.TID 0000.0001)                -9.530000000000000E+01,      /* K = 19 */
(PID.TID 0000.0001)                -1.073000000000000E+02,      /* K = 20 */
(PID.TID 0000.0001)                -1.205000000000000E+02,      /* K = 21 */
(PID.TID 0000.0001)                -1.351000000000000E+02,      /* K = 22 */
(PID.TID 0000.0001)                -1.512000000000000E+02,      /* K = 23 */
(PID.TID 0000.0001)                -1.690000000000000E+02,      /* K = 24 */
(PID.TID 0000.0001)                -1.887000000000000E+02,      /* K = 25 */
(PID.TID 0000.0001)                -2.104000000000000E+02,      /* K = 26 */
(PID.TID 0000.0001)                -2.344000000000000E+02,      /* K = 27 */
(PID.TID 0000.0001)                -2.609000000000000E+02,      /* K = 28 */
(PID.TID 0000.0001)                -2.902000000000000E+02,      /* K = 29 */
(PID.TID 0000.0001)                -3.225000000000000E+02,      /* K = 30 */
(PID.TID 0000.0001)                -3.582000000000000E+02,      /* K = 31 */
(PID.TID 0000.0001)                -3.976000000000000E+02,      /* K = 32 */
(PID.TID 0000.0001)                -4.412000000000000E+02,      /* K = 33 */
(PID.TID 0000.0001)                -4.893000000000000E+02,      /* K = 34 */
(PID.TID 0000.0001)                -5.424000000000000E+02,      /* K = 35 */
(PID.TID 0000.0001)                -6.011000000000000E+02,      /* K = 36 */
(PID.TID 0000.0001)                -6.659000000000000E+02,      /* K = 37 */
(PID.TID 0000.0001)                -7.375000000000000E+02,      /* K = 38 */
(PID.TID 0000.0001)                -8.166000000000000E+02,      /* K = 39 */
(PID.TID 0000.0001)                -9.037000000000000E+02,      /* K = 40 */
(PID.TID 0000.0001)                -1.000000000000000E+03       /* K = 41 */
(PID.TID 0000.0001)     ;
(PID.TID 0000.0001) deepFacC = /* deep-model grid factor @ cell-Center (-) */
(PID.TID 0000.0001)    40 @  1.000000000000000E+00              /* K =  1: 40 */
(PID.TID 0000.0001)     ;
(PID.TID 0000.0001) deepFacF = /* deep-model grid factor @ W-Interface (-) */
(PID.TID 0000.0001)    41 @  1.000000000000000E+00              /* K =  1: 41 */
(PID.TID 0000.0001)     ;
(PID.TID 0000.0001) rotateGrid = /* use rotated grid ( True/False ) */
(PID.TID 0000.0001)                   F
(PID.TID 0000.0001)     ;
(PID.TID 0000.0001) phiEuler = /* Euler angle, rotation about original z-coordinate [rad] */
(PID.TID 0000.0001)                 0.000000000000000E+00
(PID.TID 0000.0001)     ;
(PID.TID 0000.0001) thetaEuler = /* Euler angle, rotation about new x-coordinate [rad] */
(PID.TID 0000.0001)                 0.000000000000000E+00
(PID.TID 0000.0001)     ;
(PID.TID 0000.0001) psiEuler = /* Euler angle, rotation about new z-coordinate [rad] */
(PID.TID 0000.0001)                 0.000000000000000E+00
(PID.TID 0000.0001)     ;
(PID.TID 0000.0001) dxF =  /* dxF(:,1,:,1) ( units: m ) */
(PID.TID 0000.0001)                 1.991600000000006E+03,      /* I =  1 */
(PID.TID 0000.0001)                 1.991699999999983E+03,      /* I =  2 */
(PID.TID 0000.0001)                 1.991600000000006E+03,      /* I =  3 */
(PID.TID 0000.0001)      . . .
(PID.TID 0000.0001)                 1.991600000000006E+03,      /* I = 58 */
(PID.TID 0000.0001)                 1.991699999999997E+03,      /* I = 59 */
(PID.TID 0000.0001)                 1.991599999999991E+03,      /* I = 60 */
(PID.TID 0000.0001)                 1.991600000000006E+03,      /* I = 61 */
(PID.TID 0000.0001)                 1.991699999999997E+03,      /* I = 62 */
(PID.TID 0000.0001)                 1.991600000000006E+03,      /* I = 63 */
(PID.TID 0000.0001)      . . .
(PID.TID 0000.0001)                 1.991700000000000E+03,      /* I =118 */
(PID.TID 0000.0001)                 1.991600000000000E+03,      /* I =119 */
(PID.TID 0000.0001)                 1.991600000000000E+03,      /* I =120 */
(PID.TID 0000.0001)                 1.991600000000000E+03,      /* I =121 */
(PID.TID 0000.0001)                 1.991700000000000E+03,      /* I =122 */
(PID.TID 0000.0001)                 1.991599999999999E+03,      /* I =123 */
(PID.TID 0000.0001)      . . .
(PID.TID 0000.0001)                 1.991699999999997E+03,      /* I =178 */
(PID.TID 0000.0001)                 1.991600000000006E+03,      /* I =179 */
(PID.TID 0000.0001)                 1.991599999999991E+03,      /* I =180 */
(PID.TID 0000.0001)                 1.991699999999997E+03,      /* I =181 */
(PID.TID 0000.0001)                 1.991600000000006E+03,      /* I =182 */
(PID.TID 0000.0001)                 1.991600000000006E+03,      /* I =183 */
(PID.TID 0000.0001)      . . .
(PID.TID 0000.0001)                 1.991699999999983E+03,      /* I =238 */
(PID.TID 0000.0001)                 1.991600000000006E+03,      /* I =239 */
(PID.TID 0000.0001)                 1.991600000000006E+03       /* I =240 */
(PID.TID 0000.0001)     ;
(PID.TID 0000.0001) dxF =  /* dxF(1,:,1,:) ( units: m ) */
(PID.TID 0000.0001)   180 @  1.991600000000006E+03              /* J =  1:180 */
(PID.TID 0000.0001)     ;
(PID.TID 0000.0001) dyF =  /* dyF(:,1,:,1) ( units: m ) */
(PID.TID 0000.0001)   240 @  2.340800000000003E+03              /* I =  1:240 */
(PID.TID 0000.0001)     ;
(PID.TID 0000.0001) dyF =  /* dyF(1,:,1,:) ( units: m ) */
(PID.TID 0000.0001)                 2.340800000000003E+03,      /* J =  1 */
(PID.TID 0000.0001)                 2.340799999999996E+03,      /* J =  2 */
(PID.TID 0000.0001)                 2.340700000000004E+03,      /* J =  3 */
(PID.TID 0000.0001)      . . .
(PID.TID 0000.0001)                 2.340799999999996E+03,      /* J = 43 */
(PID.TID 0000.0001)                 2.340800000000003E+03,      /* J = 44 */
(PID.TID 0000.0001)                 2.340799999999996E+03,      /* J = 45 */
(PID.TID 0000.0001)                 2.340800000000003E+03,      /* J = 46 */
(PID.TID 0000.0001)                 2.340800000000003E+03,      /* J = 47 */
(PID.TID 0000.0001)                 2.340699999999997E+03,      /* J = 48 */
(PID.TID 0000.0001)      . . .
(PID.TID 0000.0001)                 2.340799999999988E+03,      /* J = 88 */
(PID.TID 0000.0001)                 2.340800000000017E+03,      /* J = 89 */
(PID.TID 0000.0001)                 2.340799999999988E+03,      /* J = 90 */
(PID.TID 0000.0001)                 2.340800000000017E+03,      /* J = 91 */
(PID.TID 0000.0001)                 2.340799999999988E+03,      /* J = 92 */
(PID.TID 0000.0001)                 2.340700000000012E+03,      /* J = 93 */
(PID.TID 0000.0001)      . . .
(PID.TID 0000.0001)                 2.340799999999988E+03,      /* J =133 */
(PID.TID 0000.0001)                 2.340799999999988E+03,      /* J =134 */
(PID.TID 0000.0001)                 2.340800000000017E+03,      /* J =135 */
(PID.TID 0000.0001)                 2.340799999999988E+03,      /* J =136 */
(PID.TID 0000.0001)                 2.340800000000017E+03,      /* J =137 */
(PID.TID 0000.0001)                 2.340699999999983E+03,      /* J =138 */
(PID.TID 0000.0001)      . . .
(PID.TID 0000.0001)                 2.340799999999988E+03,      /* J =178 */
(PID.TID 0000.0001)                 2.340799999999988E+03,      /* J =179 */
(PID.TID 0000.0001)                 2.340799999999988E+03       /* J =180 */
(PID.TID 0000.0001)     ;
(PID.TID 0000.0001) dxG =  /* dxG(:,1,:,1) ( units: m ) */
(PID.TID 0000.0001)                 1.991600000000006E+03,      /* I =  1 */
(PID.TID 0000.0001)                 1.991699999999983E+03,      /* I =  2 */
(PID.TID 0000.0001)                 1.991600000000006E+03,      /* I =  3 */
(PID.TID 0000.0001)      . . .
(PID.TID 0000.0001)                 1.991600000000006E+03,      /* I = 58 */
(PID.TID 0000.0001)                 1.991699999999997E+03,      /* I = 59 */
(PID.TID 0000.0001)                 1.991599999999991E+03,      /* I = 60 */
(PID.TID 0000.0001)                 1.991600000000006E+03,      /* I = 61 */
(PID.TID 0000.0001)                 1.991699999999997E+03,      /* I = 62 */
(PID.TID 0000.0001)                 1.991600000000006E+03,      /* I = 63 */
(PID.TID 0000.0001)      . . .
(PID.TID 0000.0001)                 1.991700000000000E+03,      /* I =118 */
(PID.TID 0000.0001)                 1.991600000000000E+03,      /* I =119 */
(PID.TID 0000.0001)                 1.991600000000000E+03,      /* I =120 */
(PID.TID 0000.0001)                 1.991600000000000E+03,      /* I =121 */
(PID.TID 0000.0001)                 1.991700000000000E+03,      /* I =122 */
(PID.TID 0000.0001)                 1.991599999999999E+03,      /* I =123 */
(PID.TID 0000.0001)      . . .
(PID.TID 0000.0001)                 1.991699999999997E+03,      /* I =178 */
(PID.TID 0000.0001)                 1.991600000000006E+03,      /* I =179 */
(PID.TID 0000.0001)                 1.991599999999991E+03,      /* I =180 */
(PID.TID 0000.0001)                 1.991699999999997E+03,      /* I =181 */
(PID.TID 0000.0001)                 1.991600000000006E+03,      /* I =182 */
(PID.TID 0000.0001)                 1.991600000000006E+03,      /* I =183 */
(PID.TID 0000.0001)      . . .
(PID.TID 0000.0001)                 1.991699999999983E+03,      /* I =238 */
(PID.TID 0000.0001)                 1.991600000000006E+03,      /* I =239 */
(PID.TID 0000.0001)                 1.991600000000006E+03       /* I =240 */
(PID.TID 0000.0001)     ;
(PID.TID 0000.0001) dxG =  /* dxG(1,:,1,:) ( units: m ) */
(PID.TID 0000.0001)   180 @  1.991600000000006E+03              /* J =  1:180 */
(PID.TID 0000.0001)     ;
(PID.TID 0000.0001) dyG =  /* dyG(:,1,:,1) ( units: m ) */
(PID.TID 0000.0001)   240 @  2.340800000000003E+03              /* I =  1:240 */
(PID.TID 0000.0001)     ;
(PID.TID 0000.0001) dyG =  /* dyG(1,:,1,:) ( units: m ) */
(PID.TID 0000.0001)                 2.340800000000003E+03,      /* J =  1 */
(PID.TID 0000.0001)                 2.340799999999996E+03,      /* J =  2 */
(PID.TID 0000.0001)                 2.340700000000004E+03,      /* J =  3 */
(PID.TID 0000.0001)      . . .
(PID.TID 0000.0001)                 2.340799999999996E+03,      /* J = 43 */
(PID.TID 0000.0001)                 2.340800000000003E+03,      /* J = 44 */
(PID.TID 0000.0001)                 2.340799999999996E+03,      /* J = 45 */
(PID.TID 0000.0001)                 2.340800000000003E+03,      /* J = 46 */
(PID.TID 0000.0001)                 2.340800000000003E+03,      /* J = 47 */
(PID.TID 0000.0001)                 2.340699999999997E+03,      /* J = 48 */
(PID.TID 0000.0001)      . . .
(PID.TID 0000.0001)                 2.340799999999988E+03,      /* J = 88 */
(PID.TID 0000.0001)                 2.340800000000017E+03,      /* J = 89 */
(PID.TID 0000.0001)                 2.340799999999988E+03,      /* J = 90 */
(PID.TID 0000.0001)                 2.340800000000017E+03,      /* J = 91 */
(PID.TID 0000.0001)                 2.340799999999988E+03,      /* J = 92 */
(PID.TID 0000.0001)                 2.340700000000012E+03,      /* J = 93 */
(PID.TID 0000.0001)      . . .
(PID.TID 0000.0001)                 2.340799999999988E+03,      /* J =133 */
(PID.TID 0000.0001)                 2.340799999999988E+03,      /* J =134 */
(PID.TID 0000.0001)                 2.340800000000017E+03,      /* J =135 */
(PID.TID 0000.0001)                 2.340799999999988E+03,      /* J =136 */
(PID.TID 0000.0001)                 2.340800000000017E+03,      /* J =137 */
(PID.TID 0000.0001)                 2.340699999999983E+03,      /* J =138 */
(PID.TID 0000.0001)      . . .
(PID.TID 0000.0001)                 2.340799999999988E+03,      /* J =178 */
(PID.TID 0000.0001)                 2.340799999999988E+03,      /* J =179 */
(PID.TID 0000.0001)                 2.340799999999988E+03       /* J =180 */
(PID.TID 0000.0001)     ;
(PID.TID 0000.0001) dxC =  /* dxC(:,1,:,1) ( units: m ) */
(PID.TID 0000.0001)                 1.991600000000006E+03,      /* I =  1 */
(PID.TID 0000.0001)                 1.991649999999994E+03,      /* I =  2 */
(PID.TID 0000.0001)                 1.991649999999994E+03,      /* I =  3 */
(PID.TID 0000.0001)      . . .
(PID.TID 0000.0001)                 1.991600000000006E+03,      /* I = 58 */
(PID.TID 0000.0001)                 1.991650000000001E+03,      /* I = 59 */
(PID.TID 0000.0001)                 1.991649999999994E+03,      /* I = 60 */
(PID.TID 0000.0001)                 1.991599999999999E+03,      /* I = 61 */
(PID.TID 0000.0001)                 1.991650000000001E+03,      /* I = 62 */
(PID.TID 0000.0001)                 1.991650000000001E+03,      /* I = 63 */
(PID.TID 0000.0001)      . . .
(PID.TID 0000.0001)                 1.991650000000000E+03,      /* I =118 */
(PID.TID 0000.0001)                 1.991650000000000E+03,      /* I =119 */
(PID.TID 0000.0001)                 1.991600000000000E+03,      /* I =120 */
(PID.TID 0000.0001)                 1.991600000000000E+03,      /* I =121 */
(PID.TID 0000.0001)                 1.991650000000000E+03,      /* I =122 */
(PID.TID 0000.0001)                 1.991650000000000E+03,      /* I =123 */
(PID.TID 0000.0001)      . . .
(PID.TID 0000.0001)                 1.991650000000001E+03,      /* I =178 */
(PID.TID 0000.0001)                 1.991650000000001E+03,      /* I =179 */
(PID.TID 0000.0001)                 1.991599999999999E+03,      /* I =180 */
(PID.TID 0000.0001)                 1.991649999999994E+03,      /* I =181 */
(PID.TID 0000.0001)                 1.991650000000001E+03,      /* I =182 */
(PID.TID 0000.0001)                 1.991600000000006E+03,      /* I =183 */
(PID.TID 0000.0001)      . . .
(PID.TID 0000.0001)                 1.991649999999994E+03,      /* I =238 */
(PID.TID 0000.0001)                 1.991649999999994E+03,      /* I =239 */
(PID.TID 0000.0001)                 1.991600000000006E+03       /* I =240 */
(PID.TID 0000.0001)     ;
(PID.TID 0000.0001) dxC =  /* dxC(1,:,1,:) ( units: m ) */
(PID.TID 0000.0001)   180 @  1.991600000000006E+03              /* J =  1:180 */
(PID.TID 0000.0001)     ;
(PID.TID 0000.0001) dyC =  /* dyC(:,1,:,1) ( units: m ) */
(PID.TID 0000.0001)   240 @  2.340799999999996E+03              /* I =  1:240 */
(PID.TID 0000.0001)     ;
(PID.TID 0000.0001) dyC =  /* dyC(1,:,1,:) ( units: m ) */
(PID.TID 0000.0001)                 2.340799999999996E+03,      /* J =  1 */
(PID.TID 0000.0001)                 2.340799999999999E+03,      /* J =  2 */
(PID.TID 0000.0001)                 2.340750000000000E+03,      /* J =  3 */
(PID.TID 0000.0001)      . . .
(PID.TID 0000.0001)                 2.340750000000000E+03,      /* J = 43 */
(PID.TID 0000.0001)                 2.340799999999999E+03,      /* J = 44 */
(PID.TID 0000.0001)                 2.340799999999999E+03,      /* J = 45 */
(PID.TID 0000.0001)                 2.340799999999999E+03,      /* J = 46 */
(PID.TID 0000.0001)                 2.340800000000003E+03,      /* J = 47 */
(PID.TID 0000.0001)                 2.340750000000000E+03,      /* J = 48 */
(PID.TID 0000.0001)      . . .
(PID.TID 0000.0001)                 2.340750000000000E+03,      /* J = 88 */
(PID.TID 0000.0001)                 2.340800000000003E+03,      /* J = 89 */
(PID.TID 0000.0001)                 2.340800000000003E+03,      /* J = 90 */
(PID.TID 0000.0001)                 2.340800000000003E+03,      /* J = 91 */
(PID.TID 0000.0001)                 2.340800000000003E+03,      /* J = 92 */
(PID.TID 0000.0001)                 2.340750000000000E+03,      /* J = 93 */
(PID.TID 0000.0001)      . . .
(PID.TID 0000.0001)                 2.340750000000000E+03,      /* J =133 */
(PID.TID 0000.0001)                 2.340799999999988E+03,      /* J =134 */
(PID.TID 0000.0001)                 2.340800000000003E+03,      /* J =135 */
(PID.TID 0000.0001)                 2.340800000000003E+03,      /* J =136 */
(PID.TID 0000.0001)                 2.340800000000003E+03,      /* J =137 */
(PID.TID 0000.0001)                 2.340750000000000E+03,      /* J =138 */
(PID.TID 0000.0001)      . . .
(PID.TID 0000.0001)                 2.340750000000000E+03,      /* J =178 */
(PID.TID 0000.0001)                 2.340799999999988E+03,      /* J =179 */
(PID.TID 0000.0001)                 2.340799999999988E+03       /* J =180 */
(PID.TID 0000.0001)     ;
(PID.TID 0000.0001) dxV =  /* dxV(:,1,:,1) ( units: m ) */
(PID.TID 0000.0001)                 1.991600000000006E+03,      /* I =  1 */
(PID.TID 0000.0001)                 1.991649999999994E+03,      /* I =  2 */
(PID.TID 0000.0001)                 1.991649999999994E+03,      /* I =  3 */
(PID.TID 0000.0001)      . . .
(PID.TID 0000.0001)                 1.991600000000006E+03,      /* I = 58 */
(PID.TID 0000.0001)                 1.991650000000001E+03,      /* I = 59 */
(PID.TID 0000.0001)                 1.991649999999994E+03,      /* I = 60 */
(PID.TID 0000.0001)                 1.991599999999999E+03,      /* I = 61 */
(PID.TID 0000.0001)                 1.991650000000001E+03,      /* I = 62 */
(PID.TID 0000.0001)                 1.991650000000001E+03,      /* I = 63 */
(PID.TID 0000.0001)      . . .
(PID.TID 0000.0001)                 1.991650000000000E+03,      /* I =118 */
(PID.TID 0000.0001)                 1.991650000000000E+03,      /* I =119 */
(PID.TID 0000.0001)                 1.991600000000000E+03,      /* I =120 */
(PID.TID 0000.0001)                 1.991600000000000E+03,      /* I =121 */
(PID.TID 0000.0001)                 1.991650000000000E+03,      /* I =122 */
(PID.TID 0000.0001)                 1.991650000000000E+03,      /* I =123 */
(PID.TID 0000.0001)      . . .
(PID.TID 0000.0001)                 1.991650000000001E+03,      /* I =178 */
(PID.TID 0000.0001)                 1.991650000000001E+03,      /* I =179 */
(PID.TID 0000.0001)                 1.991599999999999E+03,      /* I =180 */
(PID.TID 0000.0001)                 1.991649999999994E+03,      /* I =181 */
(PID.TID 0000.0001)                 1.991650000000001E+03,      /* I =182 */
(PID.TID 0000.0001)                 1.991600000000006E+03,      /* I =183 */
(PID.TID 0000.0001)      . . .
(PID.TID 0000.0001)                 1.991649999999994E+03,      /* I =238 */
(PID.TID 0000.0001)                 1.991649999999994E+03,      /* I =239 */
(PID.TID 0000.0001)                 1.991600000000006E+03       /* I =240 */
(PID.TID 0000.0001)     ;
(PID.TID 0000.0001) dxV =  /* dxV(1,:,1,:) ( units: m ) */
(PID.TID 0000.0001)   180 @  1.991600000000006E+03              /* J =  1:180 */
(PID.TID 0000.0001)     ;
(PID.TID 0000.0001) dyU =  /* dyU(:,1,:,1) ( units: m ) */
(PID.TID 0000.0001)   240 @  2.340799999999996E+03              /* I =  1:240 */
(PID.TID 0000.0001)     ;
(PID.TID 0000.0001) dyU =  /* dyU(1,:,1,:) ( units: m ) */
(PID.TID 0000.0001)                 2.340799999999996E+03,      /* J =  1 */
(PID.TID 0000.0001)                 2.340799999999999E+03,      /* J =  2 */
(PID.TID 0000.0001)                 2.340750000000000E+03,      /* J =  3 */
(PID.TID 0000.0001)      . . .
(PID.TID 0000.0001)                 2.340750000000000E+03,      /* J = 43 */
(PID.TID 0000.0001)                 2.340799999999999E+03,      /* J = 44 */
(PID.TID 0000.0001)                 2.340799999999999E+03,      /* J = 45 */
(PID.TID 0000.0001)                 2.340799999999999E+03,      /* J = 46 */
(PID.TID 0000.0001)                 2.340800000000003E+03,      /* J = 47 */
(PID.TID 0000.0001)                 2.340750000000000E+03,      /* J = 48 */
(PID.TID 0000.0001)      . . .
(PID.TID 0000.0001)                 2.340750000000000E+03,      /* J = 88 */
(PID.TID 0000.0001)                 2.340800000000003E+03,      /* J = 89 */
(PID.TID 0000.0001)                 2.340800000000003E+03,      /* J = 90 */
(PID.TID 0000.0001)                 2.340800000000003E+03,      /* J = 91 */
(PID.TID 0000.0001)                 2.340800000000003E+03,      /* J = 92 */
(PID.TID 0000.0001)                 2.340750000000000E+03,      /* J = 93 */
(PID.TID 0000.0001)      . . .
(PID.TID 0000.0001)                 2.340750000000000E+03,      /* J =133 */
(PID.TID 0000.0001)                 2.340799999999988E+03,      /* J =134 */
(PID.TID 0000.0001)                 2.340800000000003E+03,      /* J =135 */
(PID.TID 0000.0001)                 2.340800000000003E+03,      /* J =136 */
(PID.TID 0000.0001)                 2.340800000000003E+03,      /* J =137 */
(PID.TID 0000.0001)                 2.340750000000000E+03,      /* J =138 */
(PID.TID 0000.0001)      . . .
(PID.TID 0000.0001)                 2.340750000000000E+03,      /* J =178 */
(PID.TID 0000.0001)                 2.340799999999988E+03,      /* J =179 */
(PID.TID 0000.0001)                 2.340799999999988E+03       /* J =180 */
(PID.TID 0000.0001)     ;
(PID.TID 0000.0001) rA  =  /* rA (:,1,:,1) ( units: m^2 ) */
(PID.TID 0000.0001)                 4.661937280000020E+06,      /* I =  1 */
(PID.TID 0000.0001)                 4.662171359999965E+06,      /* I =  2 */
(PID.TID 0000.0001)                 4.661937280000020E+06,      /* I =  3 */
(PID.TID 0000.0001)      . . .
(PID.TID 0000.0001)                 4.661937280000020E+06,      /* I = 58 */
(PID.TID 0000.0001)                 4.662171359999999E+06,      /* I = 59 */
(PID.TID 0000.0001)                 4.661937279999985E+06,      /* I = 60 */
(PID.TID 0000.0001)                 4.661937280000020E+06,      /* I = 61 */
(PID.TID 0000.0001)                 4.662171359999999E+06,      /* I = 62 */
(PID.TID 0000.0001)                 4.661937280000020E+06,      /* I = 63 */
(PID.TID 0000.0001)      . . .
(PID.TID 0000.0001)                 4.662171360000007E+06,      /* I =118 */
(PID.TID 0000.0001)                 4.661937280000006E+06,      /* I =119 */
(PID.TID 0000.0001)                 4.661937280000006E+06,      /* I =120 */
(PID.TID 0000.0001)                 4.661937280000006E+06,      /* I =121 */
(PID.TID 0000.0001)                 4.662171360000007E+06,      /* I =122 */
(PID.TID 0000.0001)                 4.661937280000005E+06,      /* I =123 */
(PID.TID 0000.0001)      . . .
(PID.TID 0000.0001)                 4.662171359999999E+06,      /* I =178 */
(PID.TID 0000.0001)                 4.661937280000020E+06,      /* I =179 */
(PID.TID 0000.0001)                 4.661937279999985E+06,      /* I =180 */
(PID.TID 0000.0001)                 4.662171359999999E+06,      /* I =181 */
(PID.TID 0000.0001)                 4.661937280000020E+06,      /* I =182 */
(PID.TID 0000.0001)                 4.661937280000020E+06,      /* I =183 */
(PID.TID 0000.0001)      . . .
(PID.TID 0000.0001)                 4.662171359999965E+06,      /* I =238 */
(PID.TID 0000.0001)                 4.661937280000020E+06,      /* I =239 */
(PID.TID 0000.0001)                 4.661937280000020E+06       /* I =240 */
(PID.TID 0000.0001)     ;
(PID.TID 0000.0001) rA  =  /* rA (1,:,1,:) ( units: m^2 ) */
(PID.TID 0000.0001)                 4.661937280000020E+06,      /* J =  1 */
(PID.TID 0000.0001)                 4.661937280000005E+06,      /* J =  2 */
(PID.TID 0000.0001)                 4.661738120000022E+06,      /* J =  3 */
(PID.TID 0000.0001)      . . .
(PID.TID 0000.0001)                 4.661937280000005E+06,      /* J = 43 */
(PID.TID 0000.0001)                 4.661937280000020E+06,      /* J = 44 */
(PID.TID 0000.0001)                 4.661937280000005E+06,      /* J = 45 */
(PID.TID 0000.0001)                 4.661937280000020E+06,      /* J = 46 */
(PID.TID 0000.0001)                 4.661937280000020E+06,      /* J = 47 */
(PID.TID 0000.0001)                 4.661738120000008E+06,      /* J = 48 */
(PID.TID 0000.0001)      . . .
(PID.TID 0000.0001)                 4.661937279999990E+06,      /* J = 88 */
(PID.TID 0000.0001)                 4.661937280000049E+06,      /* J = 89 */
(PID.TID 0000.0001)                 4.661937279999990E+06,      /* J = 90 */
(PID.TID 0000.0001)                 4.661937280000049E+06,      /* J = 91 */
(PID.TID 0000.0001)                 4.661937279999990E+06,      /* J = 92 */
(PID.TID 0000.0001)                 4.661738120000036E+06,      /* J = 93 */
(PID.TID 0000.0001)      . . .
(PID.TID 0000.0001)                 4.661937279999990E+06,      /* J =133 */
(PID.TID 0000.0001)                 4.661937279999990E+06,      /* J =134 */
(PID.TID 0000.0001)                 4.661937280000049E+06,      /* J =135 */
(PID.TID 0000.0001)                 4.661937279999990E+06,      /* J =136 */
(PID.TID 0000.0001)                 4.661937280000049E+06,      /* J =137 */
(PID.TID 0000.0001)                 4.661738119999979E+06,      /* J =138 */
(PID.TID 0000.0001)      . . .
(PID.TID 0000.0001)                 4.661937279999990E+06,      /* J =178 */
(PID.TID 0000.0001)                 4.661937279999990E+06,      /* J =179 */
(PID.TID 0000.0001)                 4.661937279999990E+06       /* J =180 */
(PID.TID 0000.0001)     ;
(PID.TID 0000.0001) rAw =  /* rAw(:,1,:,1) ( units: m^2 ) */
(PID.TID 0000.0001)                 4.661937280000020E+06,      /* I =  1 */
(PID.TID 0000.0001)                 4.662054319999992E+06,      /* I =  2 */
(PID.TID 0000.0001)                 4.662054319999992E+06,      /* I =  3 */
(PID.TID 0000.0001)      . . .
(PID.TID 0000.0001)                 4.661937280000020E+06,      /* I = 58 */
(PID.TID 0000.0001)                 4.662054320000010E+06,      /* I = 59 */
(PID.TID 0000.0001)                 4.662054319999992E+06,      /* I = 60 */
(PID.TID 0000.0001)                 4.661937280000002E+06,      /* I = 61 */
(PID.TID 0000.0001)                 4.662054320000010E+06,      /* I = 62 */
(PID.TID 0000.0001)                 4.662054320000010E+06,      /* I = 63 */
(PID.TID 0000.0001)      . . .
(PID.TID 0000.0001)                 4.662054320000006E+06,      /* I =118 */
(PID.TID 0000.0001)                 4.662054320000006E+06,      /* I =119 */
(PID.TID 0000.0001)                 4.661937280000006E+06,      /* I =120 */
(PID.TID 0000.0001)                 4.661937280000006E+06,      /* I =121 */
(PID.TID 0000.0001)                 4.662054320000006E+06,      /* I =122 */
(PID.TID 0000.0001)                 4.662054320000006E+06,      /* I =123 */
(PID.TID 0000.0001)      . . .
(PID.TID 0000.0001)                 4.662054320000010E+06,      /* I =178 */
(PID.TID 0000.0001)                 4.662054320000010E+06,      /* I =179 */
(PID.TID 0000.0001)                 4.661937280000002E+06,      /* I =180 */
(PID.TID 0000.0001)                 4.662054319999992E+06,      /* I =181 */
(PID.TID 0000.0001)                 4.662054320000010E+06,      /* I =182 */
(PID.TID 0000.0001)                 4.661937280000020E+06,      /* I =183 */
(PID.TID 0000.0001)      . . .
(PID.TID 0000.0001)                 4.662054319999992E+06,      /* I =238 */
(PID.TID 0000.0001)                 4.662054319999992E+06,      /* I =239 */
(PID.TID 0000.0001)                 4.661937280000020E+06       /* I =240 */
(PID.TID 0000.0001)     ;
(PID.TID 0000.0001) rAw =  /* rAw(1,:,1,:) ( units: m^2 ) */
(PID.TID 0000.0001)                 4.661937280000020E+06,      /* J =  1 */
(PID.TID 0000.0001)                 4.661937280000005E+06,      /* J =  2 */
(PID.TID 0000.0001)                 4.661738120000022E+06,      /* J =  3 */
(PID.TID 0000.0001)      . . .
(PID.TID 0000.0001)                 4.661937280000005E+06,      /* J = 43 */
(PID.TID 0000.0001)                 4.661937280000020E+06,      /* J = 44 */
(PID.TID 0000.0001)                 4.661937280000005E+06,      /* J = 45 */
(PID.TID 0000.0001)                 4.661937280000020E+06,      /* J = 46 */
(PID.TID 0000.0001)                 4.661937280000020E+06,      /* J = 47 */
(PID.TID 0000.0001)                 4.661738120000008E+06,      /* J = 48 */
(PID.TID 0000.0001)      . . .
(PID.TID 0000.0001)                 4.661937279999990E+06,      /* J = 88 */
(PID.TID 0000.0001)                 4.661937280000049E+06,      /* J = 89 */
(PID.TID 0000.0001)                 4.661937279999990E+06,      /* J = 90 */
(PID.TID 0000.0001)                 4.661937280000049E+06,      /* J = 91 */
(PID.TID 0000.0001)                 4.661937279999990E+06,      /* J = 92 */
(PID.TID 0000.0001)                 4.661738120000036E+06,      /* J = 93 */
(PID.TID 0000.0001)      . . .
(PID.TID 0000.0001)                 4.661937279999990E+06,      /* J =133 */
(PID.TID 0000.0001)                 4.661937279999990E+06,      /* J =134 */
(PID.TID 0000.0001)                 4.661937280000049E+06,      /* J =135 */
(PID.TID 0000.0001)                 4.661937279999990E+06,      /* J =136 */
(PID.TID 0000.0001)                 4.661937280000049E+06,      /* J =137 */
(PID.TID 0000.0001)                 4.661738119999979E+06,      /* J =138 */
(PID.TID 0000.0001)      . . .
(PID.TID 0000.0001)                 4.661937279999990E+06,      /* J =178 */
(PID.TID 0000.0001)                 4.661937279999990E+06,      /* J =179 */
(PID.TID 0000.0001)                 4.661937279999990E+06       /* J =180 */
(PID.TID 0000.0001)     ;
(PID.TID 0000.0001) rAs =  /* rAs(:,1,:,1) ( units: m^2 ) */
(PID.TID 0000.0001)                 4.661937280000005E+06,      /* I =  1 */
(PID.TID 0000.0001)                 4.662171359999950E+06,      /* I =  2 */
(PID.TID 0000.0001)                 4.661937280000005E+06,      /* I =  3 */
(PID.TID 0000.0001)      . . .
(PID.TID 0000.0001)                 4.661937280000005E+06,      /* I = 58 */
(PID.TID 0000.0001)                 4.662171359999985E+06,      /* I = 59 */
(PID.TID 0000.0001)                 4.661937279999970E+06,      /* I = 60 */
(PID.TID 0000.0001)                 4.661937280000005E+06,      /* I = 61 */
(PID.TID 0000.0001)                 4.662171359999985E+06,      /* I = 62 */
(PID.TID 0000.0001)                 4.661937280000005E+06,      /* I = 63 */
(PID.TID 0000.0001)      . . .
(PID.TID 0000.0001)                 4.662171359999992E+06,      /* I =118 */
(PID.TID 0000.0001)                 4.661937279999992E+06,      /* I =119 */
(PID.TID 0000.0001)                 4.661937279999991E+06,      /* I =120 */
(PID.TID 0000.0001)                 4.661937279999992E+06,      /* I =121 */
(PID.TID 0000.0001)                 4.662171359999992E+06,      /* I =122 */
(PID.TID 0000.0001)                 4.661937279999990E+06,      /* I =123 */
(PID.TID 0000.0001)      . . .
(PID.TID 0000.0001)                 4.662171359999985E+06,      /* I =178 */
(PID.TID 0000.0001)                 4.661937280000005E+06,      /* I =179 */
(PID.TID 0000.0001)                 4.661937279999970E+06,      /* I =180 */
(PID.TID 0000.0001)                 4.662171359999985E+06,      /* I =181 */
(PID.TID 0000.0001)                 4.661937280000005E+06,      /* I =182 */
(PID.TID 0000.0001)                 4.661937280000005E+06,      /* I =183 */
(PID.TID 0000.0001)      . . .
(PID.TID 0000.0001)                 4.662171359999950E+06,      /* I =238 */
(PID.TID 0000.0001)                 4.661937280000005E+06,      /* I =239 */
(PID.TID 0000.0001)                 4.661937280000005E+06       /* I =240 */
(PID.TID 0000.0001)     ;
(PID.TID 0000.0001) rAs =  /* rAs(1,:,1,:) ( units: m^2 ) */
(PID.TID 0000.0001)                 4.661937280000005E+06,      /* J =  1 */
(PID.TID 0000.0001)                 4.661937280000012E+06,      /* J =  2 */
(PID.TID 0000.0001)                 4.661837700000013E+06,      /* J =  3 */
(PID.TID 0000.0001)      . . .
(PID.TID 0000.0001)                 4.661837700000013E+06,      /* J = 43 */
(PID.TID 0000.0001)                 4.661937280000012E+06,      /* J = 44 */
(PID.TID 0000.0001)                 4.661937280000012E+06,      /* J = 45 */
(PID.TID 0000.0001)                 4.661937280000012E+06,      /* J = 46 */
(PID.TID 0000.0001)                 4.661937280000020E+06,      /* J = 47 */
(PID.TID 0000.0001)                 4.661837700000013E+06,      /* J = 48 */
(PID.TID 0000.0001)      . . .
(PID.TID 0000.0001)                 4.661837700000013E+06,      /* J = 88 */
(PID.TID 0000.0001)                 4.661937280000020E+06,      /* J = 89 */
(PID.TID 0000.0001)                 4.661937280000020E+06,      /* J = 90 */
(PID.TID 0000.0001)                 4.661937280000020E+06,      /* J = 91 */
(PID.TID 0000.0001)                 4.661937280000020E+06,      /* J = 92 */
(PID.TID 0000.0001)                 4.661837700000013E+06,      /* J = 93 */
(PID.TID 0000.0001)      . . .
(PID.TID 0000.0001)                 4.661837700000013E+06,      /* J =133 */
(PID.TID 0000.0001)                 4.661937279999990E+06,      /* J =134 */
(PID.TID 0000.0001)                 4.661937280000020E+06,      /* J =135 */
(PID.TID 0000.0001)                 4.661937280000020E+06,      /* J =136 */
(PID.TID 0000.0001)                 4.661937280000020E+06,      /* J =137 */
(PID.TID 0000.0001)                 4.661837700000013E+06,      /* J =138 */
(PID.TID 0000.0001)      . . .
(PID.TID 0000.0001)                 4.661837700000013E+06,      /* J =178 */
(PID.TID 0000.0001)                 4.661937279999990E+06,      /* J =179 */
(PID.TID 0000.0001)                 4.661937279999990E+06       /* J =180 */
(PID.TID 0000.0001)     ;
(PID.TID 0000.0001) globalArea = /* Integrated horizontal Area (m^2) */
(PID.TID 0000.0001)                 1.590572966179196E+11
(PID.TID 0000.0001)     ;
(PID.TID 0000.0001) // =======================================================
(PID.TID 0000.0001) // End of Model config. summary
(PID.TID 0000.0001) // =======================================================
(PID.TID 0000.0001) 
(PID.TID 0000.0001) == Packages configuration : Check & print summary ==
(PID.TID 0000.0001) 
(PID.TID 0000.0001) OBCS_CHECK: #define ALLOW_OBCS
(PID.TID 0000.0001) // =======================================================
(PID.TID 0000.0001) // OBCS_CHECK: OBCS configuration summary
(PID.TID 0000.0001) // =======================================================
(PID.TID 0000.0001) 
(PID.TID 0000.0001) useOBCSprescribe = /* prescribe OB values */
(PID.TID 0000.0001)                   F
(PID.TID 0000.0001)     ;
(PID.TID 0000.0001) useOBCSbalance = /* balance the flow through OB */
(PID.TID 0000.0001)                   T
(PID.TID 0000.0001)     ;
(PID.TID 0000.0001) OBCSbalanceSurf = /* include surf. flux in balance */
(PID.TID 0000.0001)                   F
(PID.TID 0000.0001)     ;
(PID.TID 0000.0001) OBCS_balanceFacN = /* Northern OB Factor for balancing OB flow [-] */
(PID.TID 0000.0001)                 1.000000000000000E+00
(PID.TID 0000.0001)     ;
(PID.TID 0000.0001) OBCS_balanceFacS = /* Southern OB Factor for balancing OB flow [-] */
(PID.TID 0000.0001)                 1.000000000000000E+00
(PID.TID 0000.0001)     ;
(PID.TID 0000.0001) OBCS_balanceFacE = /* Eastern  OB Factor for balancing OB flow [-] */
(PID.TID 0000.0001)                 1.000000000000000E+00
(PID.TID 0000.0001)     ;
(PID.TID 0000.0001) OBCS_balanceFacW = /* Western  OB Factor for balancing OB flow [-] */
(PID.TID 0000.0001)                 1.000000000000000E+00
(PID.TID 0000.0001)     ;
(PID.TID 0000.0001) OBCSfixTopo =  /* mod. topo to have zero gradient across boundaries. */
(PID.TID 0000.0001)                   F
(PID.TID 0000.0001)     ;
(PID.TID 0000.0001) OBCS_uvApplyFac = /* Factor to apply to U,V 2nd column/row */
(PID.TID 0000.0001)                 1.000000000000000E+00
(PID.TID 0000.0001)     ;
(PID.TID 0000.0001) OBCS_u1_adv_T = /* Temp uses upwind adv-scheme @ OB */
(PID.TID 0000.0001)                       0
(PID.TID 0000.0001)     ;
(PID.TID 0000.0001) OBCS_u1_adv_S = /* Salt uses upwind adv-scheme @ OB */
(PID.TID 0000.0001)                       0
(PID.TID 0000.0001)     ;
(PID.TID 0000.0001) OBCS_monitorFreq = /* monitor output frequency [s] */
(PID.TID 0000.0001)                 1.200000000000000E+03
(PID.TID 0000.0001)     ;
(PID.TID 0000.0001) OBCS_monSelect = /* select group of variables to monitor */
(PID.TID 0000.0001)                       0
(PID.TID 0000.0001)     ;
(PID.TID 0000.0001) OBCSprintDiags =  /* print some OBCS diagnostics. */
(PID.TID 0000.0001)                   F
(PID.TID 0000.0001)     ;
(PID.TID 0000.0001) useOBCStides = /* apply tidal forcing through OB */
(PID.TID 0000.0001)                   F
(PID.TID 0000.0001)     ;
(PID.TID 0000.0001) useOrlanskiNorth =  /* use Orlanski for northern bound. */
(PID.TID 0000.0001)                   F
(PID.TID 0000.0001)     ;
(PID.TID 0000.0001) useOrlanskiSouth =  /* use Orlanski for southern bound. */
(PID.TID 0000.0001)                   T
(PID.TID 0000.0001)     ;
(PID.TID 0000.0001) useOrlanskiEast  =  /* use Orlanski for eastern bound. */
(PID.TID 0000.0001)                   F
(PID.TID 0000.0001)     ;
(PID.TID 0000.0001) useOrlanskiWest  =  /* use Orlanski for western bound. */
(PID.TID 0000.0001)                   F
(PID.TID 0000.0001)     ;
(PID.TID 0000.0001) useStevensNorth =  /* use Stevens for northern bound. */
(PID.TID 0000.0001)                   F
(PID.TID 0000.0001)     ;
(PID.TID 0000.0001) useStevensSouth =  /* use Stevens for southern bound. */
(PID.TID 0000.0001)                   F
(PID.TID 0000.0001)     ;
(PID.TID 0000.0001) useStevensEast  =  /* use Stevens for eastern bound. */
(PID.TID 0000.0001)                   F
(PID.TID 0000.0001)     ;
(PID.TID 0000.0001) useStevensWest  =  /* use Stevens for western bound. */
(PID.TID 0000.0001)                   F
(PID.TID 0000.0001)     ;
(PID.TID 0000.0001) useStevensPhaseVel  =  /* include phase vel. term. */
(PID.TID 0000.0001)                   T
(PID.TID 0000.0001)     ;
(PID.TID 0000.0001) useStevensAdvection  =  /* include advection term. */
(PID.TID 0000.0001)                   T
(PID.TID 0000.0001)     ;
(PID.TID 0000.0001) TrelaxStevens = /* relaxation time scale for theta ( s ). */
(PID.TID 0000.0001)                 0.000000000000000E+00
(PID.TID 0000.0001)     ;
(PID.TID 0000.0001) SrelaxStevens = /* relaxation time scale for salinity ( s ). */
(PID.TID 0000.0001)                 0.000000000000000E+00
(PID.TID 0000.0001)     ;
(PID.TID 0000.0001) useOBCSSponge =  /* use sponge along boundaries */
(PID.TID 0000.0001)                   F
(PID.TID 0000.0001)     ;
(PID.TID 0000.0001) useSeaiceSponge =  /* use sponge for sea ice variables */
(PID.TID 0000.0001)                   F
(PID.TID 0000.0001)     ;
(PID.TID 0000.0001) useSeaiceNeumann =  /* use Neumann conditions for sea ice variables */
(PID.TID 0000.0001)                   F
(PID.TID 0000.0001)     ;
(PID.TID 0000.0001) OB_indexNone = /* null value for OB index (i.e. no OB) */
(PID.TID 0000.0001)                     -99
(PID.TID 0000.0001)     ;
(PID.TID 0000.0001) ======== Tile bi=   1 , bj=   1 ========
(PID.TID 0000.0001)  OB_Jn = /* Northern OB local indices */
(PID.TID 0000.0001)    22 @      -99                            /* I = -2: 19 */
(PID.TID 0000.0001)  OB_Js = /* Southern OB local indices */
(PID.TID 0000.0001)    22 @        1                            /* I = -2: 19 */
(PID.TID 0000.0001)  OB_Ie = /* Eastern OB local indices */
(PID.TID 0000.0001)    18 @      -99                            /* J = -2: 15 */
(PID.TID 0000.0001)  OB_Iw = /* Western OB local indices */
(PID.TID 0000.0001)    18 @      -99                            /* J = -2: 15 */
(PID.TID 0000.0001) ======== Tile bi=   2 , bj=   1 ========
(PID.TID 0000.0001)  OB_Jn = /* Northern OB local indices */
(PID.TID 0000.0001)    22 @      -99                            /* I = -2: 19 */
(PID.TID 0000.0001)  OB_Js = /* Southern OB local indices */
(PID.TID 0000.0001)    22 @        1                            /* I = -2: 19 */
(PID.TID 0000.0001)  OB_Ie = /* Eastern OB local indices */
(PID.TID 0000.0001)    18 @      -99                            /* J = -2: 15 */
(PID.TID 0000.0001)  OB_Iw = /* Western OB local indices */
(PID.TID 0000.0001)    18 @      -99                            /* J = -2: 15 */
(PID.TID 0000.0001) ======== Tile bi=   3 , bj=   1 ========
(PID.TID 0000.0001)  OB_Jn = /* Northern OB local indices */
(PID.TID 0000.0001)    22 @      -99                            /* I = -2: 19 */
(PID.TID 0000.0001)  OB_Js = /* Southern OB local indices */
(PID.TID 0000.0001)    22 @        1                            /* I = -2: 19 */
(PID.TID 0000.0001)  OB_Ie = /* Eastern OB local indices */
(PID.TID 0000.0001)    18 @      -99                            /* J = -2: 15 */
(PID.TID 0000.0001)  OB_Iw = /* Western OB local indices */
(PID.TID 0000.0001)    18 @      -99                            /* J = -2: 15 */
(PID.TID 0000.0001) ======== Tile bi=   4 , bj=   1 ========
(PID.TID 0000.0001)  OB_Jn = /* Northern OB local indices */
(PID.TID 0000.0001)    22 @      -99                            /* I = -2: 19 */
(PID.TID 0000.0001)  OB_Js = /* Southern OB local indices */
(PID.TID 0000.0001)    22 @        1                            /* I = -2: 19 */
(PID.TID 0000.0001)  OB_Ie = /* Eastern OB local indices */
(PID.TID 0000.0001)    18 @      -99                            /* J = -2: 15 */
(PID.TID 0000.0001)  OB_Iw = /* Western OB local indices */
(PID.TID 0000.0001)    18 @      -99                            /* J = -2: 15 */
(PID.TID 0000.0001) ======== Tile bi=   5 , bj=   1 ========
(PID.TID 0000.0001)  OB_Jn = /* Northern OB local indices */
(PID.TID 0000.0001)    22 @      -99                            /* I = -2: 19 */
(PID.TID 0000.0001)  OB_Js = /* Southern OB local indices */
(PID.TID 0000.0001)    22 @        1                            /* I = -2: 19 */
(PID.TID 0000.0001)  OB_Ie = /* Eastern OB local indices */
(PID.TID 0000.0001)    18 @      -99                            /* J = -2: 15 */
(PID.TID 0000.0001)  OB_Iw = /* Western OB local indices */
(PID.TID 0000.0001)    18 @      -99                            /* J = -2: 15 */
(PID.TID 0000.0001) ======== Tile bi=   6 , bj=   1 ========
(PID.TID 0000.0001)  OB_Jn = /* Northern OB local indices */
(PID.TID 0000.0001)    22 @      -99                            /* I = -2: 19 */
(PID.TID 0000.0001)  OB_Js = /* Southern OB local indices */
(PID.TID 0000.0001)    22 @        1                            /* I = -2: 19 */
(PID.TID 0000.0001)  OB_Ie = /* Eastern OB local indices */
(PID.TID 0000.0001)    18 @      -99                            /* J = -2: 15 */
(PID.TID 0000.0001)  OB_Iw = /* Western OB local indices */
(PID.TID 0000.0001)    18 @      -99                            /* J = -2: 15 */
(PID.TID 0000.0001) ======== Tile bi=   7 , bj=   1 ========
(PID.TID 0000.0001)  OB_Jn = /* Northern OB local indices */
(PID.TID 0000.0001)    22 @      -99                            /* I = -2: 19 */
(PID.TID 0000.0001)  OB_Js = /* Southern OB local indices */
(PID.TID 0000.0001)    22 @        1                            /* I = -2: 19 */
(PID.TID 0000.0001)  OB_Ie = /* Eastern OB local indices */
(PID.TID 0000.0001)    18 @      -99                            /* J = -2: 15 */
(PID.TID 0000.0001)  OB_Iw = /* Western OB local indices */
(PID.TID 0000.0001)    18 @      -99                            /* J = -2: 15 */
(PID.TID 0000.0001) ======== Tile bi=   8 , bj=   1 ========
(PID.TID 0000.0001)  OB_Jn = /* Northern OB local indices */
(PID.TID 0000.0001)    22 @      -99                            /* I = -2: 19 */
(PID.TID 0000.0001)  OB_Js = /* Southern OB local indices */
(PID.TID 0000.0001)    22 @        1                            /* I = -2: 19 */
(PID.TID 0000.0001)  OB_Ie = /* Eastern OB local indices */
(PID.TID 0000.0001)    18 @      -99                            /* J = -2: 15 */
(PID.TID 0000.0001)  OB_Iw = /* Western OB local indices */
(PID.TID 0000.0001)    18 @      -99                            /* J = -2: 15 */
(PID.TID 0000.0001) ======== Tile bi=   9 , bj=   1 ========
(PID.TID 0000.0001)  OB_Jn = /* Northern OB local indices */
(PID.TID 0000.0001)    22 @      -99                            /* I = -2: 19 */
(PID.TID 0000.0001)  OB_Js = /* Southern OB local indices */
(PID.TID 0000.0001)    22 @        1                            /* I = -2: 19 */
(PID.TID 0000.0001)  OB_Ie = /* Eastern OB local indices */
(PID.TID 0000.0001)    18 @      -99                            /* J = -2: 15 */
(PID.TID 0000.0001)  OB_Iw = /* Western OB local indices */
(PID.TID 0000.0001)    18 @      -99                            /* J = -2: 15 */
(PID.TID 0000.0001) ======== Tile bi=  10 , bj=   1 ========
(PID.TID 0000.0001)  OB_Jn = /* Northern OB local indices */
(PID.TID 0000.0001)    22 @      -99                            /* I = -2: 19 */
(PID.TID 0000.0001)  OB_Js = /* Southern OB local indices */
(PID.TID 0000.0001)    22 @        1                            /* I = -2: 19 */
(PID.TID 0000.0001)  OB_Ie = /* Eastern OB local indices */
(PID.TID 0000.0001)    18 @      -99                            /* J = -2: 15 */
(PID.TID 0000.0001)  OB_Iw = /* Western OB local indices */
(PID.TID 0000.0001)    18 @      -99                            /* J = -2: 15 */
(PID.TID 0000.0001) ======== Tile bi=  11 , bj=   1 ========
(PID.TID 0000.0001)  OB_Jn = /* Northern OB local indices */
(PID.TID 0000.0001)    22 @      -99                            /* I = -2: 19 */
(PID.TID 0000.0001)  OB_Js = /* Southern OB local indices */
(PID.TID 0000.0001)    22 @        1                            /* I = -2: 19 */
(PID.TID 0000.0001)  OB_Ie = /* Eastern OB local indices */
(PID.TID 0000.0001)    18 @      -99                            /* J = -2: 15 */
(PID.TID 0000.0001)  OB_Iw = /* Western OB local indices */
(PID.TID 0000.0001)    18 @      -99                            /* J = -2: 15 */
(PID.TID 0000.0001) ======== Tile bi=  12 , bj=   1 ========
(PID.TID 0000.0001)  OB_Jn = /* Northern OB local indices */
(PID.TID 0000.0001)    22 @      -99                            /* I = -2: 19 */
(PID.TID 0000.0001)  OB_Js = /* Southern OB local indices */
(PID.TID 0000.0001)    22 @        1                            /* I = -2: 19 */
(PID.TID 0000.0001)  OB_Ie = /* Eastern OB local indices */
(PID.TID 0000.0001)    18 @      -99                            /* J = -2: 15 */
(PID.TID 0000.0001)  OB_Iw = /* Western OB local indices */
(PID.TID 0000.0001)    18 @      -99                            /* J = -2: 15 */
(PID.TID 0000.0001) ======== Tile bi=  13 , bj=   1 ========
(PID.TID 0000.0001)  OB_Jn = /* Northern OB local indices */
(PID.TID 0000.0001)    22 @      -99                            /* I = -2: 19 */
(PID.TID 0000.0001)  OB_Js = /* Southern OB local indices */
(PID.TID 0000.0001)    22 @        1                            /* I = -2: 19 */
(PID.TID 0000.0001)  OB_Ie = /* Eastern OB local indices */
(PID.TID 0000.0001)    18 @      -99                            /* J = -2: 15 */
(PID.TID 0000.0001)  OB_Iw = /* Western OB local indices */
(PID.TID 0000.0001)    18 @      -99                            /* J = -2: 15 */
(PID.TID 0000.0001) ======== Tile bi=  14 , bj=   1 ========
(PID.TID 0000.0001)  OB_Jn = /* Northern OB local indices */
(PID.TID 0000.0001)    22 @      -99                            /* I = -2: 19 */
(PID.TID 0000.0001)  OB_Js = /* Southern OB local indices */
(PID.TID 0000.0001)    22 @        1                            /* I = -2: 19 */
(PID.TID 0000.0001)  OB_Ie = /* Eastern OB local indices */
(PID.TID 0000.0001)    18 @      -99                            /* J = -2: 15 */
(PID.TID 0000.0001)  OB_Iw = /* Western OB local indices */
(PID.TID 0000.0001)    18 @      -99                            /* J = -2: 15 */
(PID.TID 0000.0001) ======== Tile bi=  15 , bj=   1 ========
(PID.TID 0000.0001)  OB_Jn = /* Northern OB local indices */
(PID.TID 0000.0001)    22 @      -99                            /* I = -2: 19 */
(PID.TID 0000.0001)  OB_Js = /* Southern OB local indices */
(PID.TID 0000.0001)    22 @        1                            /* I = -2: 19 */
(PID.TID 0000.0001)  OB_Ie = /* Eastern OB local indices */
(PID.TID 0000.0001)    18 @      -99                            /* J = -2: 15 */
(PID.TID 0000.0001)  OB_Iw = /* Western OB local indices */
(PID.TID 0000.0001)    18 @      -99                            /* J = -2: 15 */
(PID.TID 0000.0001) ======== Tile bi=   1 , bj=   2 ========
(PID.TID 0000.0001)  OB_Jn = /* Northern OB local indices */
(PID.TID 0000.0001)    22 @      -99                            /* I = -2: 19 */
(PID.TID 0000.0001)  OB_Js = /* Southern OB local indices */
(PID.TID 0000.0001)    22 @      -99                            /* I = -2: 19 */
(PID.TID 0000.0001)  OB_Ie = /* Eastern OB local indices */
(PID.TID 0000.0001)    18 @      -99                            /* J = -2: 15 */
(PID.TID 0000.0001)  OB_Iw = /* Western OB local indices */
(PID.TID 0000.0001)    18 @      -99                            /* J = -2: 15 */
(PID.TID 0000.0001) ======== Tile bi=   2 , bj=   2 ========
(PID.TID 0000.0001)  OB_Jn = /* Northern OB local indices */
(PID.TID 0000.0001)    22 @      -99                            /* I = -2: 19 */
(PID.TID 0000.0001)  OB_Js = /* Southern OB local indices */
(PID.TID 0000.0001)    22 @      -99                            /* I = -2: 19 */
(PID.TID 0000.0001)  OB_Ie = /* Eastern OB local indices */
(PID.TID 0000.0001)    18 @      -99                            /* J = -2: 15 */
(PID.TID 0000.0001)  OB_Iw = /* Western OB local indices */
(PID.TID 0000.0001)    18 @      -99                            /* J = -2: 15 */
(PID.TID 0000.0001) ======== Tile bi=   3 , bj=   2 ========
(PID.TID 0000.0001)  OB_Jn = /* Northern OB local indices */
(PID.TID 0000.0001)    22 @      -99                            /* I = -2: 19 */
(PID.TID 0000.0001)  OB_Js = /* Southern OB local indices */
(PID.TID 0000.0001)    22 @      -99                            /* I = -2: 19 */
(PID.TID 0000.0001)  OB_Ie = /* Eastern OB local indices */
(PID.TID 0000.0001)    18 @      -99                            /* J = -2: 15 */
(PID.TID 0000.0001)  OB_Iw = /* Western OB local indices */
(PID.TID 0000.0001)    18 @      -99                            /* J = -2: 15 */
(PID.TID 0000.0001) ======== Tile bi=   4 , bj=   2 ========
(PID.TID 0000.0001)  OB_Jn = /* Northern OB local indices */
(PID.TID 0000.0001)    22 @      -99                            /* I = -2: 19 */
(PID.TID 0000.0001)  OB_Js = /* Southern OB local indices */
(PID.TID 0000.0001)    22 @      -99                            /* I = -2: 19 */
(PID.TID 0000.0001)  OB_Ie = /* Eastern OB local indices */
(PID.TID 0000.0001)    18 @      -99                            /* J = -2: 15 */
(PID.TID 0000.0001)  OB_Iw = /* Western OB local indices */
(PID.TID 0000.0001)    18 @      -99                            /* J = -2: 15 */
(PID.TID 0000.0001) ======== Tile bi=   5 , bj=   2 ========
(PID.TID 0000.0001)  OB_Jn = /* Northern OB local indices */
(PID.TID 0000.0001)    22 @      -99                            /* I = -2: 19 */
(PID.TID 0000.0001)  OB_Js = /* Southern OB local indices */
(PID.TID 0000.0001)    22 @      -99                            /* I = -2: 19 */
(PID.TID 0000.0001)  OB_Ie = /* Eastern OB local indices */
(PID.TID 0000.0001)    18 @      -99                            /* J = -2: 15 */
(PID.TID 0000.0001)  OB_Iw = /* Western OB local indices */
(PID.TID 0000.0001)    18 @      -99                            /* J = -2: 15 */
(PID.TID 0000.0001) ======== Tile bi=   6 , bj=   2 ========
(PID.TID 0000.0001)  OB_Jn = /* Northern OB local indices */
(PID.TID 0000.0001)    22 @      -99                            /* I = -2: 19 */
(PID.TID 0000.0001)  OB_Js = /* Southern OB local indices */
(PID.TID 0000.0001)    22 @      -99                            /* I = -2: 19 */
(PID.TID 0000.0001)  OB_Ie = /* Eastern OB local indices */
(PID.TID 0000.0001)    18 @      -99                            /* J = -2: 15 */
(PID.TID 0000.0001)  OB_Iw = /* Western OB local indices */
(PID.TID 0000.0001)    18 @      -99                            /* J = -2: 15 */
(PID.TID 0000.0001) ======== Tile bi=   7 , bj=   2 ========
(PID.TID 0000.0001)  OB_Jn = /* Northern OB local indices */
(PID.TID 0000.0001)    22 @      -99                            /* I = -2: 19 */
(PID.TID 0000.0001)  OB_Js = /* Southern OB local indices */
(PID.TID 0000.0001)    22 @      -99                            /* I = -2: 19 */
(PID.TID 0000.0001)  OB_Ie = /* Eastern OB local indices */
(PID.TID 0000.0001)    18 @      -99                            /* J = -2: 15 */
(PID.TID 0000.0001)  OB_Iw = /* Western OB local indices */
(PID.TID 0000.0001)    18 @      -99                            /* J = -2: 15 */
(PID.TID 0000.0001) ======== Tile bi=   8 , bj=   2 ========
(PID.TID 0000.0001)  OB_Jn = /* Northern OB local indices */
(PID.TID 0000.0001)    22 @      -99                            /* I = -2: 19 */
(PID.TID 0000.0001)  OB_Js = /* Southern OB local indices */
(PID.TID 0000.0001)    22 @      -99                            /* I = -2: 19 */
(PID.TID 0000.0001)  OB_Ie = /* Eastern OB local indices */
(PID.TID 0000.0001)    18 @      -99                            /* J = -2: 15 */
(PID.TID 0000.0001)  OB_Iw = /* Western OB local indices */
(PID.TID 0000.0001)    18 @      -99                            /* J = -2: 15 */
(PID.TID 0000.0001) ======== Tile bi=   9 , bj=   2 ========
(PID.TID 0000.0001)  OB_Jn = /* Northern OB local indices */
(PID.TID 0000.0001)    22 @      -99                            /* I = -2: 19 */
(PID.TID 0000.0001)  OB_Js = /* Southern OB local indices */
(PID.TID 0000.0001)    22 @      -99                            /* I = -2: 19 */
(PID.TID 0000.0001)  OB_Ie = /* Eastern OB local indices */
(PID.TID 0000.0001)    18 @      -99                            /* J = -2: 15 */
(PID.TID 0000.0001)  OB_Iw = /* Western OB local indices */
(PID.TID 0000.0001)    18 @      -99                            /* J = -2: 15 */
(PID.TID 0000.0001) ======== Tile bi=  10 , bj=   2 ========
(PID.TID 0000.0001)  OB_Jn = /* Northern OB local indices */
(PID.TID 0000.0001)    22 @      -99                            /* I = -2: 19 */
(PID.TID 0000.0001)  OB_Js = /* Southern OB local indices */
(PID.TID 0000.0001)    22 @      -99                            /* I = -2: 19 */
(PID.TID 0000.0001)  OB_Ie = /* Eastern OB local indices */
(PID.TID 0000.0001)    18 @      -99                            /* J = -2: 15 */
(PID.TID 0000.0001)  OB_Iw = /* Western OB local indices */
(PID.TID 0000.0001)    18 @      -99                            /* J = -2: 15 */
(PID.TID 0000.0001) ======== Tile bi=  11 , bj=   2 ========
(PID.TID 0000.0001)  OB_Jn = /* Northern OB local indices */
(PID.TID 0000.0001)    22 @      -99                            /* I = -2: 19 */
(PID.TID 0000.0001)  OB_Js = /* Southern OB local indices */
(PID.TID 0000.0001)    22 @      -99                            /* I = -2: 19 */
(PID.TID 0000.0001)  OB_Ie = /* Eastern OB local indices */
(PID.TID 0000.0001)    18 @      -99                            /* J = -2: 15 */
(PID.TID 0000.0001)  OB_Iw = /* Western OB local indices */
(PID.TID 0000.0001)    18 @      -99                            /* J = -2: 15 */
(PID.TID 0000.0001) ======== Tile bi=  12 , bj=   2 ========
(PID.TID 0000.0001)  OB_Jn = /* Northern OB local indices */
(PID.TID 0000.0001)    22 @      -99                            /* I = -2: 19 */
(PID.TID 0000.0001)  OB_Js = /* Southern OB local indices */
(PID.TID 0000.0001)    22 @      -99                            /* I = -2: 19 */
(PID.TID 0000.0001)  OB_Ie = /* Eastern OB local indices */
(PID.TID 0000.0001)    18 @      -99                            /* J = -2: 15 */
(PID.TID 0000.0001)  OB_Iw = /* Western OB local indices */
(PID.TID 0000.0001)    18 @      -99                            /* J = -2: 15 */
(PID.TID 0000.0001) ======== Tile bi=  13 , bj=   2 ========
(PID.TID 0000.0001)  OB_Jn = /* Northern OB local indices */
(PID.TID 0000.0001)    22 @      -99                            /* I = -2: 19 */
(PID.TID 0000.0001)  OB_Js = /* Southern OB local indices */
(PID.TID 0000.0001)    22 @      -99                            /* I = -2: 19 */
(PID.TID 0000.0001)  OB_Ie = /* Eastern OB local indices */
(PID.TID 0000.0001)    18 @      -99                            /* J = -2: 15 */
(PID.TID 0000.0001)  OB_Iw = /* Western OB local indices */
(PID.TID 0000.0001)    18 @      -99                            /* J = -2: 15 */
(PID.TID 0000.0001) ======== Tile bi=  14 , bj=   2 ========
(PID.TID 0000.0001)  OB_Jn = /* Northern OB local indices */
(PID.TID 0000.0001)    22 @      -99                            /* I = -2: 19 */
(PID.TID 0000.0001)  OB_Js = /* Southern OB local indices */
(PID.TID 0000.0001)    22 @      -99                            /* I = -2: 19 */
(PID.TID 0000.0001)  OB_Ie = /* Eastern OB local indices */
(PID.TID 0000.0001)    18 @      -99                            /* J = -2: 15 */
(PID.TID 0000.0001)  OB_Iw = /* Western OB local indices */
(PID.TID 0000.0001)    18 @      -99                            /* J = -2: 15 */
(PID.TID 0000.0001) ======== Tile bi=  15 , bj=   2 ========
(PID.TID 0000.0001)  OB_Jn = /* Northern OB local indices */
(PID.TID 0000.0001)    22 @      -99                            /* I = -2: 19 */
(PID.TID 0000.0001)  OB_Js = /* Southern OB local indices */
(PID.TID 0000.0001)    22 @      -99                            /* I = -2: 19 */
(PID.TID 0000.0001)  OB_Ie = /* Eastern OB local indices */
(PID.TID 0000.0001)    18 @      -99                            /* J = -2: 15 */
(PID.TID 0000.0001)  OB_Iw = /* Western OB local indices */
(PID.TID 0000.0001)    18 @      -99                            /* J = -2: 15 */
(PID.TID 0000.0001) ======== Tile bi=   1 , bj=   3 ========
(PID.TID 0000.0001)  OB_Jn = /* Northern OB local indices */
(PID.TID 0000.0001)    22 @      -99                            /* I = -2: 19 */
(PID.TID 0000.0001)  OB_Js = /* Southern OB local indices */
(PID.TID 0000.0001)    22 @      -99                            /* I = -2: 19 */
(PID.TID 0000.0001)  OB_Ie = /* Eastern OB local indices */
(PID.TID 0000.0001)    18 @      -99                            /* J = -2: 15 */
(PID.TID 0000.0001)  OB_Iw = /* Western OB local indices */
(PID.TID 0000.0001)    18 @      -99                            /* J = -2: 15 */
(PID.TID 0000.0001) ======== Tile bi=   2 , bj=   3 ========
(PID.TID 0000.0001)  OB_Jn = /* Northern OB local indices */
(PID.TID 0000.0001)    22 @      -99                            /* I = -2: 19 */
(PID.TID 0000.0001)  OB_Js = /* Southern OB local indices */
(PID.TID 0000.0001)    22 @      -99                            /* I = -2: 19 */
(PID.TID 0000.0001)  OB_Ie = /* Eastern OB local indices */
(PID.TID 0000.0001)    18 @      -99                            /* J = -2: 15 */
(PID.TID 0000.0001)  OB_Iw = /* Western OB local indices */
(PID.TID 0000.0001)    18 @      -99                            /* J = -2: 15 */
(PID.TID 0000.0001) ======== Tile bi=   3 , bj=   3 ========
(PID.TID 0000.0001)  OB_Jn = /* Northern OB local indices */
(PID.TID 0000.0001)    22 @      -99                            /* I = -2: 19 */
(PID.TID 0000.0001)  OB_Js = /* Southern OB local indices */
(PID.TID 0000.0001)    22 @      -99                            /* I = -2: 19 */
(PID.TID 0000.0001)  OB_Ie = /* Eastern OB local indices */
(PID.TID 0000.0001)    18 @      -99                            /* J = -2: 15 */
(PID.TID 0000.0001)  OB_Iw = /* Western OB local indices */
(PID.TID 0000.0001)    18 @      -99                            /* J = -2: 15 */
(PID.TID 0000.0001) ======== Tile bi=   4 , bj=   3 ========
(PID.TID 0000.0001)  OB_Jn = /* Northern OB local indices */
(PID.TID 0000.0001)    22 @      -99                            /* I = -2: 19 */
(PID.TID 0000.0001)  OB_Js = /* Southern OB local indices */
(PID.TID 0000.0001)    22 @      -99                            /* I = -2: 19 */
(PID.TID 0000.0001)  OB_Ie = /* Eastern OB local indices */
(PID.TID 0000.0001)    18 @      -99                            /* J = -2: 15 */
(PID.TID 0000.0001)  OB_Iw = /* Western OB local indices */
(PID.TID 0000.0001)    18 @      -99                            /* J = -2: 15 */
(PID.TID 0000.0001) ======== Tile bi=   5 , bj=   3 ========
(PID.TID 0000.0001)  OB_Jn = /* Northern OB local indices */
(PID.TID 0000.0001)    22 @      -99                            /* I = -2: 19 */
(PID.TID 0000.0001)  OB_Js = /* Southern OB local indices */
(PID.TID 0000.0001)    22 @      -99                            /* I = -2: 19 */
(PID.TID 0000.0001)  OB_Ie = /* Eastern OB local indices */
(PID.TID 0000.0001)    18 @      -99                            /* J = -2: 15 */
(PID.TID 0000.0001)  OB_Iw = /* Western OB local indices */
(PID.TID 0000.0001)    18 @      -99                            /* J = -2: 15 */
(PID.TID 0000.0001) ======== Tile bi=   6 , bj=   3 ========
(PID.TID 0000.0001)  OB_Jn = /* Northern OB local indices */
(PID.TID 0000.0001)    22 @      -99                            /* I = -2: 19 */
(PID.TID 0000.0001)  OB_Js = /* Southern OB local indices */
(PID.TID 0000.0001)    22 @      -99                            /* I = -2: 19 */
(PID.TID 0000.0001)  OB_Ie = /* Eastern OB local indices */
(PID.TID 0000.0001)    18 @      -99                            /* J = -2: 15 */
(PID.TID 0000.0001)  OB_Iw = /* Western OB local indices */
(PID.TID 0000.0001)    18 @      -99                            /* J = -2: 15 */
(PID.TID 0000.0001) ======== Tile bi=   7 , bj=   3 ========
(PID.TID 0000.0001)  OB_Jn = /* Northern OB local indices */
(PID.TID 0000.0001)    22 @      -99                            /* I = -2: 19 */
(PID.TID 0000.0001)  OB_Js = /* Southern OB local indices */
(PID.TID 0000.0001)    22 @      -99                            /* I = -2: 19 */
(PID.TID 0000.0001)  OB_Ie = /* Eastern OB local indices */
(PID.TID 0000.0001)    18 @      -99                            /* J = -2: 15 */
(PID.TID 0000.0001)  OB_Iw = /* Western OB local indices */
(PID.TID 0000.0001)    18 @      -99                            /* J = -2: 15 */
(PID.TID 0000.0001) ======== Tile bi=   8 , bj=   3 ========
(PID.TID 0000.0001)  OB_Jn = /* Northern OB local indices */
(PID.TID 0000.0001)    22 @      -99                            /* I = -2: 19 */
(PID.TID 0000.0001)  OB_Js = /* Southern OB local indices */
(PID.TID 0000.0001)    22 @      -99                            /* I = -2: 19 */
(PID.TID 0000.0001)  OB_Ie = /* Eastern OB local indices */
(PID.TID 0000.0001)    18 @      -99                            /* J = -2: 15 */
(PID.TID 0000.0001)  OB_Iw = /* Western OB local indices */
(PID.TID 0000.0001)    18 @      -99                            /* J = -2: 15 */
(PID.TID 0000.0001) ======== Tile bi=   9 , bj=   3 ========
(PID.TID 0000.0001)  OB_Jn = /* Northern OB local indices */
(PID.TID 0000.0001)    22 @      -99                            /* I = -2: 19 */
(PID.TID 0000.0001)  OB_Js = /* Southern OB local indices */
(PID.TID 0000.0001)    22 @      -99                            /* I = -2: 19 */
(PID.TID 0000.0001)  OB_Ie = /* Eastern OB local indices */
(PID.TID 0000.0001)    18 @      -99                            /* J = -2: 15 */
(PID.TID 0000.0001)  OB_Iw = /* Western OB local indices */
(PID.TID 0000.0001)    18 @      -99                            /* J = -2: 15 */
(PID.TID 0000.0001) ======== Tile bi=  10 , bj=   3 ========
(PID.TID 0000.0001)  OB_Jn = /* Northern OB local indices */
(PID.TID 0000.0001)    22 @      -99                            /* I = -2: 19 */
(PID.TID 0000.0001)  OB_Js = /* Southern OB local indices */
(PID.TID 0000.0001)    22 @      -99                            /* I = -2: 19 */
(PID.TID 0000.0001)  OB_Ie = /* Eastern OB local indices */
(PID.TID 0000.0001)    18 @      -99                            /* J = -2: 15 */
(PID.TID 0000.0001)  OB_Iw = /* Western OB local indices */
(PID.TID 0000.0001)    18 @      -99                            /* J = -2: 15 */
(PID.TID 0000.0001) ======== Tile bi=  11 , bj=   3 ========
(PID.TID 0000.0001)  OB_Jn = /* Northern OB local indices */
(PID.TID 0000.0001)    22 @      -99                            /* I = -2: 19 */
(PID.TID 0000.0001)  OB_Js = /* Southern OB local indices */
(PID.TID 0000.0001)    22 @      -99                            /* I = -2: 19 */
(PID.TID 0000.0001)  OB_Ie = /* Eastern OB local indices */
(PID.TID 0000.0001)    18 @      -99                            /* J = -2: 15 */
(PID.TID 0000.0001)  OB_Iw = /* Western OB local indices */
(PID.TID 0000.0001)    18 @      -99                            /* J = -2: 15 */
(PID.TID 0000.0001) ======== Tile bi=  12 , bj=   3 ========
(PID.TID 0000.0001)  OB_Jn = /* Northern OB local indices */
(PID.TID 0000.0001)    22 @      -99                            /* I = -2: 19 */
(PID.TID 0000.0001)  OB_Js = /* Southern OB local indices */
(PID.TID 0000.0001)    22 @      -99                            /* I = -2: 19 */
(PID.TID 0000.0001)  OB_Ie = /* Eastern OB local indices */
(PID.TID 0000.0001)    18 @      -99                            /* J = -2: 15 */
(PID.TID 0000.0001)  OB_Iw = /* Western OB local indices */
(PID.TID 0000.0001)    18 @      -99                            /* J = -2: 15 */
(PID.TID 0000.0001) ======== Tile bi=  13 , bj=   3 ========
(PID.TID 0000.0001)  OB_Jn = /* Northern OB local indices */
(PID.TID 0000.0001)    22 @      -99                            /* I = -2: 19 */
(PID.TID 0000.0001)  OB_Js = /* Southern OB local indices */
(PID.TID 0000.0001)    22 @      -99                            /* I = -2: 19 */
(PID.TID 0000.0001)  OB_Ie = /* Eastern OB local indices */
(PID.TID 0000.0001)    18 @      -99                            /* J = -2: 15 */
(PID.TID 0000.0001)  OB_Iw = /* Western OB local indices */
(PID.TID 0000.0001)    18 @      -99                            /* J = -2: 15 */
(PID.TID 0000.0001) ======== Tile bi=  14 , bj=   3 ========
(PID.TID 0000.0001)  OB_Jn = /* Northern OB local indices */
(PID.TID 0000.0001)    22 @      -99                            /* I = -2: 19 */
(PID.TID 0000.0001)  OB_Js = /* Southern OB local indices */
(PID.TID 0000.0001)    22 @      -99                            /* I = -2: 19 */
(PID.TID 0000.0001)  OB_Ie = /* Eastern OB local indices */
(PID.TID 0000.0001)    18 @      -99                            /* J = -2: 15 */
(PID.TID 0000.0001)  OB_Iw = /* Western OB local indices */
(PID.TID 0000.0001)    18 @      -99                            /* J = -2: 15 */
(PID.TID 0000.0001) ======== Tile bi=  15 , bj=   3 ========
(PID.TID 0000.0001)  OB_Jn = /* Northern OB local indices */
(PID.TID 0000.0001)    22 @      -99                            /* I = -2: 19 */
(PID.TID 0000.0001)  OB_Js = /* Southern OB local indices */
(PID.TID 0000.0001)    22 @      -99                            /* I = -2: 19 */
(PID.TID 0000.0001)  OB_Ie = /* Eastern OB local indices */
(PID.TID 0000.0001)    18 @      -99                            /* J = -2: 15 */
(PID.TID 0000.0001)  OB_Iw = /* Western OB local indices */
(PID.TID 0000.0001)    18 @      -99                            /* J = -2: 15 */
(PID.TID 0000.0001) ======== Tile bi=   1 , bj=   4 ========
(PID.TID 0000.0001)  OB_Jn = /* Northern OB local indices */
(PID.TID 0000.0001)    22 @      -99                            /* I = -2: 19 */
(PID.TID 0000.0001)  OB_Js = /* Southern OB local indices */
(PID.TID 0000.0001)    22 @      -99                            /* I = -2: 19 */
(PID.TID 0000.0001)  OB_Ie = /* Eastern OB local indices */
(PID.TID 0000.0001)    18 @      -99                            /* J = -2: 15 */
(PID.TID 0000.0001)  OB_Iw = /* Western OB local indices */
(PID.TID 0000.0001)    18 @      -99                            /* J = -2: 15 */
(PID.TID 0000.0001) ======== Tile bi=   2 , bj=   4 ========
(PID.TID 0000.0001)  OB_Jn = /* Northern OB local indices */
(PID.TID 0000.0001)    22 @      -99                            /* I = -2: 19 */
(PID.TID 0000.0001)  OB_Js = /* Southern OB local indices */
(PID.TID 0000.0001)    22 @      -99                            /* I = -2: 19 */
(PID.TID 0000.0001)  OB_Ie = /* Eastern OB local indices */
(PID.TID 0000.0001)    18 @      -99                            /* J = -2: 15 */
(PID.TID 0000.0001)  OB_Iw = /* Western OB local indices */
(PID.TID 0000.0001)    18 @      -99                            /* J = -2: 15 */
(PID.TID 0000.0001) ======== Tile bi=   3 , bj=   4 ========
(PID.TID 0000.0001)  OB_Jn = /* Northern OB local indices */
(PID.TID 0000.0001)    22 @      -99                            /* I = -2: 19 */
(PID.TID 0000.0001)  OB_Js = /* Southern OB local indices */
(PID.TID 0000.0001)    22 @      -99                            /* I = -2: 19 */
(PID.TID 0000.0001)  OB_Ie = /* Eastern OB local indices */
(PID.TID 0000.0001)    18 @      -99                            /* J = -2: 15 */
(PID.TID 0000.0001)  OB_Iw = /* Western OB local indices */
(PID.TID 0000.0001)    18 @      -99                            /* J = -2: 15 */
(PID.TID 0000.0001) ======== Tile bi=   4 , bj=   4 ========
(PID.TID 0000.0001)  OB_Jn = /* Northern OB local indices */
(PID.TID 0000.0001)    22 @      -99                            /* I = -2: 19 */
(PID.TID 0000.0001)  OB_Js = /* Southern OB local indices */
(PID.TID 0000.0001)    22 @      -99                            /* I = -2: 19 */
(PID.TID 0000.0001)  OB_Ie = /* Eastern OB local indices */
(PID.TID 0000.0001)    18 @      -99                            /* J = -2: 15 */
(PID.TID 0000.0001)  OB_Iw = /* Western OB local indices */
(PID.TID 0000.0001)    18 @      -99                            /* J = -2: 15 */
(PID.TID 0000.0001) ======== Tile bi=   5 , bj=   4 ========
(PID.TID 0000.0001)  OB_Jn = /* Northern OB local indices */
(PID.TID 0000.0001)    22 @      -99                            /* I = -2: 19 */
(PID.TID 0000.0001)  OB_Js = /* Southern OB local indices */
(PID.TID 0000.0001)    22 @      -99                            /* I = -2: 19 */
(PID.TID 0000.0001)  OB_Ie = /* Eastern OB local indices */
(PID.TID 0000.0001)    18 @      -99                            /* J = -2: 15 */
(PID.TID 0000.0001)  OB_Iw = /* Western OB local indices */
(PID.TID 0000.0001)    18 @      -99                            /* J = -2: 15 */
(PID.TID 0000.0001) ======== Tile bi=   6 , bj=   4 ========
(PID.TID 0000.0001)  OB_Jn = /* Northern OB local indices */
(PID.TID 0000.0001)    22 @      -99                            /* I = -2: 19 */
(PID.TID 0000.0001)  OB_Js = /* Southern OB local indices */
(PID.TID 0000.0001)    22 @      -99                            /* I = -2: 19 */
(PID.TID 0000.0001)  OB_Ie = /* Eastern OB local indices */
(PID.TID 0000.0001)    18 @      -99                            /* J = -2: 15 */
(PID.TID 0000.0001)  OB_Iw = /* Western OB local indices */
(PID.TID 0000.0001)    18 @      -99                            /* J = -2: 15 */
(PID.TID 0000.0001) ======== Tile bi=   7 , bj=   4 ========
(PID.TID 0000.0001)  OB_Jn = /* Northern OB local indices */
(PID.TID 0000.0001)    22 @      -99                            /* I = -2: 19 */
(PID.TID 0000.0001)  OB_Js = /* Southern OB local indices */
(PID.TID 0000.0001)    22 @      -99                            /* I = -2: 19 */
(PID.TID 0000.0001)  OB_Ie = /* Eastern OB local indices */
(PID.TID 0000.0001)    18 @      -99                            /* J = -2: 15 */
(PID.TID 0000.0001)  OB_Iw = /* Western OB local indices */
(PID.TID 0000.0001)    18 @      -99                            /* J = -2: 15 */
(PID.TID 0000.0001) ======== Tile bi=   8 , bj=   4 ========
(PID.TID 0000.0001)  OB_Jn = /* Northern OB local indices */
(PID.TID 0000.0001)    22 @      -99                            /* I = -2: 19 */
(PID.TID 0000.0001)  OB_Js = /* Southern OB local indices */
(PID.TID 0000.0001)    22 @      -99                            /* I = -2: 19 */
(PID.TID 0000.0001)  OB_Ie = /* Eastern OB local indices */
(PID.TID 0000.0001)    18 @      -99                            /* J = -2: 15 */
(PID.TID 0000.0001)  OB_Iw = /* Western OB local indices */
(PID.TID 0000.0001)    18 @      -99                            /* J = -2: 15 */
(PID.TID 0000.0001) ======== Tile bi=   9 , bj=   4 ========
(PID.TID 0000.0001)  OB_Jn = /* Northern OB local indices */
(PID.TID 0000.0001)    22 @      -99                            /* I = -2: 19 */
(PID.TID 0000.0001)  OB_Js = /* Southern OB local indices */
(PID.TID 0000.0001)    22 @      -99                            /* I = -2: 19 */
(PID.TID 0000.0001)  OB_Ie = /* Eastern OB local indices */
(PID.TID 0000.0001)    18 @      -99                            /* J = -2: 15 */
(PID.TID 0000.0001)  OB_Iw = /* Western OB local indices */
(PID.TID 0000.0001)    18 @      -99                            /* J = -2: 15 */
(PID.TID 0000.0001) ======== Tile bi=  10 , bj=   4 ========
(PID.TID 0000.0001)  OB_Jn = /* Northern OB local indices */
(PID.TID 0000.0001)    22 @      -99                            /* I = -2: 19 */
(PID.TID 0000.0001)  OB_Js = /* Southern OB local indices */
(PID.TID 0000.0001)    22 @      -99                            /* I = -2: 19 */
(PID.TID 0000.0001)  OB_Ie = /* Eastern OB local indices */
(PID.TID 0000.0001)    18 @      -99                            /* J = -2: 15 */
(PID.TID 0000.0001)  OB_Iw = /* Western OB local indices */
(PID.TID 0000.0001)    18 @      -99                            /* J = -2: 15 */
(PID.TID 0000.0001) ======== Tile bi=  11 , bj=   4 ========
(PID.TID 0000.0001)  OB_Jn = /* Northern OB local indices */
(PID.TID 0000.0001)    22 @      -99                            /* I = -2: 19 */
(PID.TID 0000.0001)  OB_Js = /* Southern OB local indices */
(PID.TID 0000.0001)    22 @      -99                            /* I = -2: 19 */
(PID.TID 0000.0001)  OB_Ie = /* Eastern OB local indices */
(PID.TID 0000.0001)    18 @      -99                            /* J = -2: 15 */
(PID.TID 0000.0001)  OB_Iw = /* Western OB local indices */
(PID.TID 0000.0001)    18 @      -99                            /* J = -2: 15 */
(PID.TID 0000.0001) ======== Tile bi=  12 , bj=   4 ========
(PID.TID 0000.0001)  OB_Jn = /* Northern OB local indices */
(PID.TID 0000.0001)    22 @      -99                            /* I = -2: 19 */
(PID.TID 0000.0001)  OB_Js = /* Southern OB local indices */
(PID.TID 0000.0001)    22 @      -99                            /* I = -2: 19 */
(PID.TID 0000.0001)  OB_Ie = /* Eastern OB local indices */
(PID.TID 0000.0001)    18 @      -99                            /* J = -2: 15 */
(PID.TID 0000.0001)  OB_Iw = /* Western OB local indices */
(PID.TID 0000.0001)    18 @      -99                            /* J = -2: 15 */
(PID.TID 0000.0001) ======== Tile bi=  13 , bj=   4 ========
(PID.TID 0000.0001)  OB_Jn = /* Northern OB local indices */
(PID.TID 0000.0001)    22 @      -99                            /* I = -2: 19 */
(PID.TID 0000.0001)  OB_Js = /* Southern OB local indices */
(PID.TID 0000.0001)    22 @      -99                            /* I = -2: 19 */
(PID.TID 0000.0001)  OB_Ie = /* Eastern OB local indices */
(PID.TID 0000.0001)    18 @      -99                            /* J = -2: 15 */
(PID.TID 0000.0001)  OB_Iw = /* Western OB local indices */
(PID.TID 0000.0001)    18 @      -99                            /* J = -2: 15 */
(PID.TID 0000.0001) ======== Tile bi=  14 , bj=   4 ========
(PID.TID 0000.0001)  OB_Jn = /* Northern OB local indices */
(PID.TID 0000.0001)    22 @      -99                            /* I = -2: 19 */
(PID.TID 0000.0001)  OB_Js = /* Southern OB local indices */
(PID.TID 0000.0001)    22 @      -99                            /* I = -2: 19 */
(PID.TID 0000.0001)  OB_Ie = /* Eastern OB local indices */
(PID.TID 0000.0001)    18 @      -99                            /* J = -2: 15 */
(PID.TID 0000.0001)  OB_Iw = /* Western OB local indices */
(PID.TID 0000.0001)    18 @      -99                            /* J = -2: 15 */
(PID.TID 0000.0001) ======== Tile bi=  15 , bj=   4 ========
(PID.TID 0000.0001)  OB_Jn = /* Northern OB local indices */
(PID.TID 0000.0001)    22 @      -99                            /* I = -2: 19 */
(PID.TID 0000.0001)  OB_Js = /* Southern OB local indices */
(PID.TID 0000.0001)    22 @      -99                            /* I = -2: 19 */
(PID.TID 0000.0001)  OB_Ie = /* Eastern OB local indices */
(PID.TID 0000.0001)    18 @      -99                            /* J = -2: 15 */
(PID.TID 0000.0001)  OB_Iw = /* Western OB local indices */
(PID.TID 0000.0001)    18 @      -99                            /* J = -2: 15 */
(PID.TID 0000.0001) ======== Tile bi=   1 , bj=   5 ========
(PID.TID 0000.0001)  OB_Jn = /* Northern OB local indices */
(PID.TID 0000.0001)    22 @      -99                            /* I = -2: 19 */
(PID.TID 0000.0001)  OB_Js = /* Southern OB local indices */
(PID.TID 0000.0001)    22 @      -99                            /* I = -2: 19 */
(PID.TID 0000.0001)  OB_Ie = /* Eastern OB local indices */
(PID.TID 0000.0001)    18 @      -99                            /* J = -2: 15 */
(PID.TID 0000.0001)  OB_Iw = /* Western OB local indices */
(PID.TID 0000.0001)    18 @      -99                            /* J = -2: 15 */
(PID.TID 0000.0001) ======== Tile bi=   2 , bj=   5 ========
(PID.TID 0000.0001)  OB_Jn = /* Northern OB local indices */
(PID.TID 0000.0001)    22 @      -99                            /* I = -2: 19 */
(PID.TID 0000.0001)  OB_Js = /* Southern OB local indices */
(PID.TID 0000.0001)    22 @      -99                            /* I = -2: 19 */
(PID.TID 0000.0001)  OB_Ie = /* Eastern OB local indices */
(PID.TID 0000.0001)    18 @      -99                            /* J = -2: 15 */
(PID.TID 0000.0001)  OB_Iw = /* Western OB local indices */
(PID.TID 0000.0001)    18 @      -99                            /* J = -2: 15 */
(PID.TID 0000.0001) ======== Tile bi=   3 , bj=   5 ========
(PID.TID 0000.0001)  OB_Jn = /* Northern OB local indices */
(PID.TID 0000.0001)    22 @      -99                            /* I = -2: 19 */
(PID.TID 0000.0001)  OB_Js = /* Southern OB local indices */
(PID.TID 0000.0001)    22 @      -99                            /* I = -2: 19 */
(PID.TID 0000.0001)  OB_Ie = /* Eastern OB local indices */
(PID.TID 0000.0001)    18 @      -99                            /* J = -2: 15 */
(PID.TID 0000.0001)  OB_Iw = /* Western OB local indices */
(PID.TID 0000.0001)    18 @      -99                            /* J = -2: 15 */
(PID.TID 0000.0001) ======== Tile bi=   4 , bj=   5 ========
(PID.TID 0000.0001)  OB_Jn = /* Northern OB local indices */
(PID.TID 0000.0001)    22 @      -99                            /* I = -2: 19 */
(PID.TID 0000.0001)  OB_Js = /* Southern OB local indices */
(PID.TID 0000.0001)    22 @      -99                            /* I = -2: 19 */
(PID.TID 0000.0001)  OB_Ie = /* Eastern OB local indices */
(PID.TID 0000.0001)    18 @      -99                            /* J = -2: 15 */
(PID.TID 0000.0001)  OB_Iw = /* Western OB local indices */
(PID.TID 0000.0001)    18 @      -99                            /* J = -2: 15 */
(PID.TID 0000.0001) ======== Tile bi=   5 , bj=   5 ========
(PID.TID 0000.0001)  OB_Jn = /* Northern OB local indices */
(PID.TID 0000.0001)    22 @      -99                            /* I = -2: 19 */
(PID.TID 0000.0001)  OB_Js = /* Southern OB local indices */
(PID.TID 0000.0001)    22 @      -99                            /* I = -2: 19 */
(PID.TID 0000.0001)  OB_Ie = /* Eastern OB local indices */
(PID.TID 0000.0001)    18 @      -99                            /* J = -2: 15 */
(PID.TID 0000.0001)  OB_Iw = /* Western OB local indices */
(PID.TID 0000.0001)    18 @      -99                            /* J = -2: 15 */
(PID.TID 0000.0001) ======== Tile bi=   6 , bj=   5 ========
(PID.TID 0000.0001)  OB_Jn = /* Northern OB local indices */
(PID.TID 0000.0001)    22 @      -99                            /* I = -2: 19 */
(PID.TID 0000.0001)  OB_Js = /* Southern OB local indices */
(PID.TID 0000.0001)    22 @      -99                            /* I = -2: 19 */
(PID.TID 0000.0001)  OB_Ie = /* Eastern OB local indices */
(PID.TID 0000.0001)    18 @      -99                            /* J = -2: 15 */
(PID.TID 0000.0001)  OB_Iw = /* Western OB local indices */
(PID.TID 0000.0001)    18 @      -99                            /* J = -2: 15 */
(PID.TID 0000.0001) ======== Tile bi=   7 , bj=   5 ========
(PID.TID 0000.0001)  OB_Jn = /* Northern OB local indices */
(PID.TID 0000.0001)    22 @      -99                            /* I = -2: 19 */
(PID.TID 0000.0001)  OB_Js = /* Southern OB local indices */
(PID.TID 0000.0001)    22 @      -99                            /* I = -2: 19 */
(PID.TID 0000.0001)  OB_Ie = /* Eastern OB local indices */
(PID.TID 0000.0001)    18 @      -99                            /* J = -2: 15 */
(PID.TID 0000.0001)  OB_Iw = /* Western OB local indices */
(PID.TID 0000.0001)    18 @      -99                            /* J = -2: 15 */
(PID.TID 0000.0001) ======== Tile bi=   8 , bj=   5 ========
(PID.TID 0000.0001)  OB_Jn = /* Northern OB local indices */
(PID.TID 0000.0001)    22 @      -99                            /* I = -2: 19 */
(PID.TID 0000.0001)  OB_Js = /* Southern OB local indices */
(PID.TID 0000.0001)    22 @      -99                            /* I = -2: 19 */
(PID.TID 0000.0001)  OB_Ie = /* Eastern OB local indices */
(PID.TID 0000.0001)    18 @      -99                            /* J = -2: 15 */
(PID.TID 0000.0001)  OB_Iw = /* Western OB local indices */
(PID.TID 0000.0001)    18 @      -99                            /* J = -2: 15 */
(PID.TID 0000.0001) ======== Tile bi=   9 , bj=   5 ========
(PID.TID 0000.0001)  OB_Jn = /* Northern OB local indices */
(PID.TID 0000.0001)    22 @      -99                            /* I = -2: 19 */
(PID.TID 0000.0001)  OB_Js = /* Southern OB local indices */
(PID.TID 0000.0001)    22 @      -99                            /* I = -2: 19 */
(PID.TID 0000.0001)  OB_Ie = /* Eastern OB local indices */
(PID.TID 0000.0001)    18 @      -99                            /* J = -2: 15 */
(PID.TID 0000.0001)  OB_Iw = /* Western OB local indices */
(PID.TID 0000.0001)    18 @      -99                            /* J = -2: 15 */
(PID.TID 0000.0001) ======== Tile bi=  10 , bj=   5 ========
(PID.TID 0000.0001)  OB_Jn = /* Northern OB local indices */
(PID.TID 0000.0001)    22 @      -99                            /* I = -2: 19 */
(PID.TID 0000.0001)  OB_Js = /* Southern OB local indices */
(PID.TID 0000.0001)    22 @      -99                            /* I = -2: 19 */
(PID.TID 0000.0001)  OB_Ie = /* Eastern OB local indices */
(PID.TID 0000.0001)    18 @      -99                            /* J = -2: 15 */
(PID.TID 0000.0001)  OB_Iw = /* Western OB local indices */
(PID.TID 0000.0001)    18 @      -99                            /* J = -2: 15 */
(PID.TID 0000.0001) ======== Tile bi=  11 , bj=   5 ========
(PID.TID 0000.0001)  OB_Jn = /* Northern OB local indices */
(PID.TID 0000.0001)    22 @      -99                            /* I = -2: 19 */
(PID.TID 0000.0001)  OB_Js = /* Southern OB local indices */
(PID.TID 0000.0001)    22 @      -99                            /* I = -2: 19 */
(PID.TID 0000.0001)  OB_Ie = /* Eastern OB local indices */
(PID.TID 0000.0001)    18 @      -99                            /* J = -2: 15 */
(PID.TID 0000.0001)  OB_Iw = /* Western OB local indices */
(PID.TID 0000.0001)    18 @      -99                            /* J = -2: 15 */
(PID.TID 0000.0001) ======== Tile bi=  12 , bj=   5 ========
(PID.TID 0000.0001)  OB_Jn = /* Northern OB local indices */
(PID.TID 0000.0001)    22 @      -99                            /* I = -2: 19 */
(PID.TID 0000.0001)  OB_Js = /* Southern OB local indices */
(PID.TID 0000.0001)    22 @      -99                            /* I = -2: 19 */
(PID.TID 0000.0001)  OB_Ie = /* Eastern OB local indices */
(PID.TID 0000.0001)    18 @      -99                            /* J = -2: 15 */
(PID.TID 0000.0001)  OB_Iw = /* Western OB local indices */
(PID.TID 0000.0001)    18 @      -99                            /* J = -2: 15 */
(PID.TID 0000.0001) ======== Tile bi=  13 , bj=   5 ========
(PID.TID 0000.0001)  OB_Jn = /* Northern OB local indices */
(PID.TID 0000.0001)    22 @      -99                            /* I = -2: 19 */
(PID.TID 0000.0001)  OB_Js = /* Southern OB local indices */
(PID.TID 0000.0001)    22 @      -99                            /* I = -2: 19 */
(PID.TID 0000.0001)  OB_Ie = /* Eastern OB local indices */
(PID.TID 0000.0001)    18 @      -99                            /* J = -2: 15 */
(PID.TID 0000.0001)  OB_Iw = /* Western OB local indices */
(PID.TID 0000.0001)    18 @      -99                            /* J = -2: 15 */
(PID.TID 0000.0001) ======== Tile bi=  14 , bj=   5 ========
(PID.TID 0000.0001)  OB_Jn = /* Northern OB local indices */
(PID.TID 0000.0001)    22 @      -99                            /* I = -2: 19 */
(PID.TID 0000.0001)  OB_Js = /* Southern OB local indices */
(PID.TID 0000.0001)    22 @      -99                            /* I = -2: 19 */
(PID.TID 0000.0001)  OB_Ie = /* Eastern OB local indices */
(PID.TID 0000.0001)    18 @      -99                            /* J = -2: 15 */
(PID.TID 0000.0001)  OB_Iw = /* Western OB local indices */
(PID.TID 0000.0001)    18 @      -99                            /* J = -2: 15 */
(PID.TID 0000.0001) ======== Tile bi=  15 , bj=   5 ========
(PID.TID 0000.0001)  OB_Jn = /* Northern OB local indices */
(PID.TID 0000.0001)    22 @      -99                            /* I = -2: 19 */
(PID.TID 0000.0001)  OB_Js = /* Southern OB local indices */
(PID.TID 0000.0001)    22 @      -99                            /* I = -2: 19 */
(PID.TID 0000.0001)  OB_Ie = /* Eastern OB local indices */
(PID.TID 0000.0001)    18 @      -99                            /* J = -2: 15 */
(PID.TID 0000.0001)  OB_Iw = /* Western OB local indices */
(PID.TID 0000.0001)    18 @      -99                            /* J = -2: 15 */
(PID.TID 0000.0001) ======== Tile bi=   1 , bj=   6 ========
(PID.TID 0000.0001)  OB_Jn = /* Northern OB local indices */
(PID.TID 0000.0001)    22 @      -99                            /* I = -2: 19 */
(PID.TID 0000.0001)  OB_Js = /* Southern OB local indices */
(PID.TID 0000.0001)    22 @      -99                            /* I = -2: 19 */
(PID.TID 0000.0001)  OB_Ie = /* Eastern OB local indices */
(PID.TID 0000.0001)    18 @      -99                            /* J = -2: 15 */
(PID.TID 0000.0001)  OB_Iw = /* Western OB local indices */
(PID.TID 0000.0001)    18 @      -99                            /* J = -2: 15 */
(PID.TID 0000.0001) ======== Tile bi=   2 , bj=   6 ========
(PID.TID 0000.0001)  OB_Jn = /* Northern OB local indices */
(PID.TID 0000.0001)    22 @      -99                            /* I = -2: 19 */
(PID.TID 0000.0001)  OB_Js = /* Southern OB local indices */
(PID.TID 0000.0001)    22 @      -99                            /* I = -2: 19 */
(PID.TID 0000.0001)  OB_Ie = /* Eastern OB local indices */
(PID.TID 0000.0001)    18 @      -99                            /* J = -2: 15 */
(PID.TID 0000.0001)  OB_Iw = /* Western OB local indices */
(PID.TID 0000.0001)    18 @      -99                            /* J = -2: 15 */
(PID.TID 0000.0001) ======== Tile bi=   3 , bj=   6 ========
(PID.TID 0000.0001)  OB_Jn = /* Northern OB local indices */
(PID.TID 0000.0001)    22 @      -99                            /* I = -2: 19 */
(PID.TID 0000.0001)  OB_Js = /* Southern OB local indices */
(PID.TID 0000.0001)    22 @      -99                            /* I = -2: 19 */
(PID.TID 0000.0001)  OB_Ie = /* Eastern OB local indices */
(PID.TID 0000.0001)    18 @      -99                            /* J = -2: 15 */
(PID.TID 0000.0001)  OB_Iw = /* Western OB local indices */
(PID.TID 0000.0001)    18 @      -99                            /* J = -2: 15 */
(PID.TID 0000.0001) ======== Tile bi=   4 , bj=   6 ========
(PID.TID 0000.0001)  OB_Jn = /* Northern OB local indices */
(PID.TID 0000.0001)    22 @      -99                            /* I = -2: 19 */
(PID.TID 0000.0001)  OB_Js = /* Southern OB local indices */
(PID.TID 0000.0001)    22 @      -99                            /* I = -2: 19 */
(PID.TID 0000.0001)  OB_Ie = /* Eastern OB local indices */
(PID.TID 0000.0001)    18 @      -99                            /* J = -2: 15 */
(PID.TID 0000.0001)  OB_Iw = /* Western OB local indices */
(PID.TID 0000.0001)    18 @      -99                            /* J = -2: 15 */
(PID.TID 0000.0001) ======== Tile bi=   5 , bj=   6 ========
(PID.TID 0000.0001)  OB_Jn = /* Northern OB local indices */
(PID.TID 0000.0001)    22 @      -99                            /* I = -2: 19 */
(PID.TID 0000.0001)  OB_Js = /* Southern OB local indices */
(PID.TID 0000.0001)    22 @      -99                            /* I = -2: 19 */
(PID.TID 0000.0001)  OB_Ie = /* Eastern OB local indices */
(PID.TID 0000.0001)    18 @      -99                            /* J = -2: 15 */
(PID.TID 0000.0001)  OB_Iw = /* Western OB local indices */
(PID.TID 0000.0001)    18 @      -99                            /* J = -2: 15 */
(PID.TID 0000.0001) ======== Tile bi=   6 , bj=   6 ========
(PID.TID 0000.0001)  OB_Jn = /* Northern OB local indices */
(PID.TID 0000.0001)    22 @      -99                            /* I = -2: 19 */
(PID.TID 0000.0001)  OB_Js = /* Southern OB local indices */
(PID.TID 0000.0001)    22 @      -99                            /* I = -2: 19 */
(PID.TID 0000.0001)  OB_Ie = /* Eastern OB local indices */
(PID.TID 0000.0001)    18 @      -99                            /* J = -2: 15 */
(PID.TID 0000.0001)  OB_Iw = /* Western OB local indices */
(PID.TID 0000.0001)    18 @      -99                            /* J = -2: 15 */
(PID.TID 0000.0001) ======== Tile bi=   7 , bj=   6 ========
(PID.TID 0000.0001)  OB_Jn = /* Northern OB local indices */
(PID.TID 0000.0001)    22 @      -99                            /* I = -2: 19 */
(PID.TID 0000.0001)  OB_Js = /* Southern OB local indices */
(PID.TID 0000.0001)    22 @      -99                            /* I = -2: 19 */
(PID.TID 0000.0001)  OB_Ie = /* Eastern OB local indices */
(PID.TID 0000.0001)    18 @      -99                            /* J = -2: 15 */
(PID.TID 0000.0001)  OB_Iw = /* Western OB local indices */
(PID.TID 0000.0001)    18 @      -99                            /* J = -2: 15 */
(PID.TID 0000.0001) ======== Tile bi=   8 , bj=   6 ========
(PID.TID 0000.0001)  OB_Jn = /* Northern OB local indices */
(PID.TID 0000.0001)    22 @      -99                            /* I = -2: 19 */
(PID.TID 0000.0001)  OB_Js = /* Southern OB local indices */
(PID.TID 0000.0001)    22 @      -99                            /* I = -2: 19 */
(PID.TID 0000.0001)  OB_Ie = /* Eastern OB local indices */
(PID.TID 0000.0001)    18 @      -99                            /* J = -2: 15 */
(PID.TID 0000.0001)  OB_Iw = /* Western OB local indices */
(PID.TID 0000.0001)    18 @      -99                            /* J = -2: 15 */
(PID.TID 0000.0001) ======== Tile bi=   9 , bj=   6 ========
(PID.TID 0000.0001)  OB_Jn = /* Northern OB local indices */
(PID.TID 0000.0001)    22 @      -99                            /* I = -2: 19 */
(PID.TID 0000.0001)  OB_Js = /* Southern OB local indices */
(PID.TID 0000.0001)    22 @      -99                            /* I = -2: 19 */
(PID.TID 0000.0001)  OB_Ie = /* Eastern OB local indices */
(PID.TID 0000.0001)    18 @      -99                            /* J = -2: 15 */
(PID.TID 0000.0001)  OB_Iw = /* Western OB local indices */
(PID.TID 0000.0001)    18 @      -99                            /* J = -2: 15 */
(PID.TID 0000.0001) ======== Tile bi=  10 , bj=   6 ========
(PID.TID 0000.0001)  OB_Jn = /* Northern OB local indices */
(PID.TID 0000.0001)    22 @      -99                            /* I = -2: 19 */
(PID.TID 0000.0001)  OB_Js = /* Southern OB local indices */
(PID.TID 0000.0001)    22 @      -99                            /* I = -2: 19 */
(PID.TID 0000.0001)  OB_Ie = /* Eastern OB local indices */
(PID.TID 0000.0001)    18 @      -99                            /* J = -2: 15 */
(PID.TID 0000.0001)  OB_Iw = /* Western OB local indices */
(PID.TID 0000.0001)    18 @      -99                            /* J = -2: 15 */
(PID.TID 0000.0001) ======== Tile bi=  11 , bj=   6 ========
(PID.TID 0000.0001)  OB_Jn = /* Northern OB local indices */
(PID.TID 0000.0001)    22 @      -99                            /* I = -2: 19 */
(PID.TID 0000.0001)  OB_Js = /* Southern OB local indices */
(PID.TID 0000.0001)    22 @      -99                            /* I = -2: 19 */
(PID.TID 0000.0001)  OB_Ie = /* Eastern OB local indices */
(PID.TID 0000.0001)    18 @      -99                            /* J = -2: 15 */
(PID.TID 0000.0001)  OB_Iw = /* Western OB local indices */
(PID.TID 0000.0001)    18 @      -99                            /* J = -2: 15 */
(PID.TID 0000.0001) ======== Tile bi=  12 , bj=   6 ========
(PID.TID 0000.0001)  OB_Jn = /* Northern OB local indices */
(PID.TID 0000.0001)    22 @      -99                            /* I = -2: 19 */
(PID.TID 0000.0001)  OB_Js = /* Southern OB local indices */
(PID.TID 0000.0001)    22 @      -99                            /* I = -2: 19 */
(PID.TID 0000.0001)  OB_Ie = /* Eastern OB local indices */
(PID.TID 0000.0001)    18 @      -99                            /* J = -2: 15 */
(PID.TID 0000.0001)  OB_Iw = /* Western OB local indices */
(PID.TID 0000.0001)    18 @      -99                            /* J = -2: 15 */
(PID.TID 0000.0001) ======== Tile bi=  13 , bj=   6 ========
(PID.TID 0000.0001)  OB_Jn = /* Northern OB local indices */
(PID.TID 0000.0001)    22 @      -99                            /* I = -2: 19 */
(PID.TID 0000.0001)  OB_Js = /* Southern OB local indices */
(PID.TID 0000.0001)    22 @      -99                            /* I = -2: 19 */
(PID.TID 0000.0001)  OB_Ie = /* Eastern OB local indices */
(PID.TID 0000.0001)    18 @      -99                            /* J = -2: 15 */
(PID.TID 0000.0001)  OB_Iw = /* Western OB local indices */
(PID.TID 0000.0001)    18 @      -99                            /* J = -2: 15 */
(PID.TID 0000.0001) ======== Tile bi=  14 , bj=   6 ========
(PID.TID 0000.0001)  OB_Jn = /* Northern OB local indices */
(PID.TID 0000.0001)    22 @      -99                            /* I = -2: 19 */
(PID.TID 0000.0001)  OB_Js = /* Southern OB local indices */
(PID.TID 0000.0001)    22 @      -99                            /* I = -2: 19 */
(PID.TID 0000.0001)  OB_Ie = /* Eastern OB local indices */
(PID.TID 0000.0001)    18 @      -99                            /* J = -2: 15 */
(PID.TID 0000.0001)  OB_Iw = /* Western OB local indices */
(PID.TID 0000.0001)    18 @      -99                            /* J = -2: 15 */
(PID.TID 0000.0001) ======== Tile bi=  15 , bj=   6 ========
(PID.TID 0000.0001)  OB_Jn = /* Northern OB local indices */
(PID.TID 0000.0001)    22 @      -99                            /* I = -2: 19 */
(PID.TID 0000.0001)  OB_Js = /* Southern OB local indices */
(PID.TID 0000.0001)    22 @      -99                            /* I = -2: 19 */
(PID.TID 0000.0001)  OB_Ie = /* Eastern OB local indices */
(PID.TID 0000.0001)    18 @      -99                            /* J = -2: 15 */
(PID.TID 0000.0001)  OB_Iw = /* Western OB local indices */
(PID.TID 0000.0001)    18 @      -99                            /* J = -2: 15 */
(PID.TID 0000.0001) ======== Tile bi=   1 , bj=   7 ========
(PID.TID 0000.0001)  OB_Jn = /* Northern OB local indices */
(PID.TID 0000.0001)    22 @      -99                            /* I = -2: 19 */
(PID.TID 0000.0001)  OB_Js = /* Southern OB local indices */
(PID.TID 0000.0001)    22 @      -99                            /* I = -2: 19 */
(PID.TID 0000.0001)  OB_Ie = /* Eastern OB local indices */
(PID.TID 0000.0001)    18 @      -99                            /* J = -2: 15 */
(PID.TID 0000.0001)  OB_Iw = /* Western OB local indices */
(PID.TID 0000.0001)    18 @      -99                            /* J = -2: 15 */
(PID.TID 0000.0001) ======== Tile bi=   2 , bj=   7 ========
(PID.TID 0000.0001)  OB_Jn = /* Northern OB local indices */
(PID.TID 0000.0001)    22 @      -99                            /* I = -2: 19 */
(PID.TID 0000.0001)  OB_Js = /* Southern OB local indices */
(PID.TID 0000.0001)    22 @      -99                            /* I = -2: 19 */
(PID.TID 0000.0001)  OB_Ie = /* Eastern OB local indices */
(PID.TID 0000.0001)    18 @      -99                            /* J = -2: 15 */
(PID.TID 0000.0001)  OB_Iw = /* Western OB local indices */
(PID.TID 0000.0001)    18 @      -99                            /* J = -2: 15 */
(PID.TID 0000.0001) ======== Tile bi=   3 , bj=   7 ========
(PID.TID 0000.0001)  OB_Jn = /* Northern OB local indices */
(PID.TID 0000.0001)    22 @      -99                            /* I = -2: 19 */
(PID.TID 0000.0001)  OB_Js = /* Southern OB local indices */
(PID.TID 0000.0001)    22 @      -99                            /* I = -2: 19 */
(PID.TID 0000.0001)  OB_Ie = /* Eastern OB local indices */
(PID.TID 0000.0001)    18 @      -99                            /* J = -2: 15 */
(PID.TID 0000.0001)  OB_Iw = /* Western OB local indices */
(PID.TID 0000.0001)    18 @      -99                            /* J = -2: 15 */
(PID.TID 0000.0001) ======== Tile bi=   4 , bj=   7 ========
(PID.TID 0000.0001)  OB_Jn = /* Northern OB local indices */
(PID.TID 0000.0001)    22 @      -99                            /* I = -2: 19 */
(PID.TID 0000.0001)  OB_Js = /* Southern OB local indices */
(PID.TID 0000.0001)    22 @      -99                            /* I = -2: 19 */
(PID.TID 0000.0001)  OB_Ie = /* Eastern OB local indices */
(PID.TID 0000.0001)    18 @      -99                            /* J = -2: 15 */
(PID.TID 0000.0001)  OB_Iw = /* Western OB local indices */
(PID.TID 0000.0001)    18 @      -99                            /* J = -2: 15 */
(PID.TID 0000.0001) ======== Tile bi=   5 , bj=   7 ========
(PID.TID 0000.0001)  OB_Jn = /* Northern OB local indices */
(PID.TID 0000.0001)    22 @      -99                            /* I = -2: 19 */
(PID.TID 0000.0001)  OB_Js = /* Southern OB local indices */
(PID.TID 0000.0001)    22 @      -99                            /* I = -2: 19 */
(PID.TID 0000.0001)  OB_Ie = /* Eastern OB local indices */
(PID.TID 0000.0001)    18 @      -99                            /* J = -2: 15 */
(PID.TID 0000.0001)  OB_Iw = /* Western OB local indices */
(PID.TID 0000.0001)    18 @      -99                            /* J = -2: 15 */
(PID.TID 0000.0001) ======== Tile bi=   6 , bj=   7 ========
(PID.TID 0000.0001)  OB_Jn = /* Northern OB local indices */
(PID.TID 0000.0001)    22 @      -99                            /* I = -2: 19 */
(PID.TID 0000.0001)  OB_Js = /* Southern OB local indices */
(PID.TID 0000.0001)    22 @      -99                            /* I = -2: 19 */
(PID.TID 0000.0001)  OB_Ie = /* Eastern OB local indices */
(PID.TID 0000.0001)    18 @      -99                            /* J = -2: 15 */
(PID.TID 0000.0001)  OB_Iw = /* Western OB local indices */
(PID.TID 0000.0001)    18 @      -99                            /* J = -2: 15 */
(PID.TID 0000.0001) ======== Tile bi=   7 , bj=   7 ========
(PID.TID 0000.0001)  OB_Jn = /* Northern OB local indices */
(PID.TID 0000.0001)    22 @      -99                            /* I = -2: 19 */
(PID.TID 0000.0001)  OB_Js = /* Southern OB local indices */
(PID.TID 0000.0001)    22 @      -99                            /* I = -2: 19 */
(PID.TID 0000.0001)  OB_Ie = /* Eastern OB local indices */
(PID.TID 0000.0001)    18 @      -99                            /* J = -2: 15 */
(PID.TID 0000.0001)  OB_Iw = /* Western OB local indices */
(PID.TID 0000.0001)    18 @      -99                            /* J = -2: 15 */
(PID.TID 0000.0001) ======== Tile bi=   8 , bj=   7 ========
(PID.TID 0000.0001)  OB_Jn = /* Northern OB local indices */
(PID.TID 0000.0001)    22 @      -99                            /* I = -2: 19 */
(PID.TID 0000.0001)  OB_Js = /* Southern OB local indices */
(PID.TID 0000.0001)    22 @      -99                            /* I = -2: 19 */
(PID.TID 0000.0001)  OB_Ie = /* Eastern OB local indices */
(PID.TID 0000.0001)    18 @      -99                            /* J = -2: 15 */
(PID.TID 0000.0001)  OB_Iw = /* Western OB local indices */
(PID.TID 0000.0001)    18 @      -99                            /* J = -2: 15 */
(PID.TID 0000.0001) ======== Tile bi=   9 , bj=   7 ========
(PID.TID 0000.0001)  OB_Jn = /* Northern OB local indices */
(PID.TID 0000.0001)    22 @      -99                            /* I = -2: 19 */
(PID.TID 0000.0001)  OB_Js = /* Southern OB local indices */
(PID.TID 0000.0001)    22 @      -99                            /* I = -2: 19 */
(PID.TID 0000.0001)  OB_Ie = /* Eastern OB local indices */
(PID.TID 0000.0001)    18 @      -99                            /* J = -2: 15 */
(PID.TID 0000.0001)  OB_Iw = /* Western OB local indices */
(PID.TID 0000.0001)    18 @      -99                            /* J = -2: 15 */
(PID.TID 0000.0001) ======== Tile bi=  10 , bj=   7 ========
(PID.TID 0000.0001)  OB_Jn = /* Northern OB local indices */
(PID.TID 0000.0001)    22 @      -99                            /* I = -2: 19 */
(PID.TID 0000.0001)  OB_Js = /* Southern OB local indices */
(PID.TID 0000.0001)    22 @      -99                            /* I = -2: 19 */
(PID.TID 0000.0001)  OB_Ie = /* Eastern OB local indices */
(PID.TID 0000.0001)    18 @      -99                            /* J = -2: 15 */
(PID.TID 0000.0001)  OB_Iw = /* Western OB local indices */
(PID.TID 0000.0001)    18 @      -99                            /* J = -2: 15 */
(PID.TID 0000.0001) ======== Tile bi=  11 , bj=   7 ========
(PID.TID 0000.0001)  OB_Jn = /* Northern OB local indices */
(PID.TID 0000.0001)    22 @      -99                            /* I = -2: 19 */
(PID.TID 0000.0001)  OB_Js = /* Southern OB local indices */
(PID.TID 0000.0001)    22 @      -99                            /* I = -2: 19 */
(PID.TID 0000.0001)  OB_Ie = /* Eastern OB local indices */
(PID.TID 0000.0001)    18 @      -99                            /* J = -2: 15 */
(PID.TID 0000.0001)  OB_Iw = /* Western OB local indices */
(PID.TID 0000.0001)    18 @      -99                            /* J = -2: 15 */
(PID.TID 0000.0001) ======== Tile bi=  12 , bj=   7 ========
(PID.TID 0000.0001)  OB_Jn = /* Northern OB local indices */
(PID.TID 0000.0001)    22 @      -99                            /* I = -2: 19 */
(PID.TID 0000.0001)  OB_Js = /* Southern OB local indices */
(PID.TID 0000.0001)    22 @      -99                            /* I = -2: 19 */
(PID.TID 0000.0001)  OB_Ie = /* Eastern OB local indices */
(PID.TID 0000.0001)    18 @      -99                            /* J = -2: 15 */
(PID.TID 0000.0001)  OB_Iw = /* Western OB local indices */
(PID.TID 0000.0001)    18 @      -99                            /* J = -2: 15 */
(PID.TID 0000.0001) ======== Tile bi=  13 , bj=   7 ========
(PID.TID 0000.0001)  OB_Jn = /* Northern OB local indices */
(PID.TID 0000.0001)    22 @      -99                            /* I = -2: 19 */
(PID.TID 0000.0001)  OB_Js = /* Southern OB local indices */
(PID.TID 0000.0001)    22 @      -99                            /* I = -2: 19 */
(PID.TID 0000.0001)  OB_Ie = /* Eastern OB local indices */
(PID.TID 0000.0001)    18 @      -99                            /* J = -2: 15 */
(PID.TID 0000.0001)  OB_Iw = /* Western OB local indices */
(PID.TID 0000.0001)    18 @      -99                            /* J = -2: 15 */
(PID.TID 0000.0001) ======== Tile bi=  14 , bj=   7 ========
(PID.TID 0000.0001)  OB_Jn = /* Northern OB local indices */
(PID.TID 0000.0001)    22 @      -99                            /* I = -2: 19 */
(PID.TID 0000.0001)  OB_Js = /* Southern OB local indices */
(PID.TID 0000.0001)    22 @      -99                            /* I = -2: 19 */
(PID.TID 0000.0001)  OB_Ie = /* Eastern OB local indices */
(PID.TID 0000.0001)    18 @      -99                            /* J = -2: 15 */
(PID.TID 0000.0001)  OB_Iw = /* Western OB local indices */
(PID.TID 0000.0001)    18 @      -99                            /* J = -2: 15 */
(PID.TID 0000.0001) ======== Tile bi=  15 , bj=   7 ========
(PID.TID 0000.0001)  OB_Jn = /* Northern OB local indices */
(PID.TID 0000.0001)    22 @      -99                            /* I = -2: 19 */
(PID.TID 0000.0001)  OB_Js = /* Southern OB local indices */
(PID.TID 0000.0001)    22 @      -99                            /* I = -2: 19 */
(PID.TID 0000.0001)  OB_Ie = /* Eastern OB local indices */
(PID.TID 0000.0001)    18 @      -99                            /* J = -2: 15 */
(PID.TID 0000.0001)  OB_Iw = /* Western OB local indices */
(PID.TID 0000.0001)    18 @      -99                            /* J = -2: 15 */
(PID.TID 0000.0001) ======== Tile bi=   1 , bj=   8 ========
(PID.TID 0000.0001)  OB_Jn = /* Northern OB local indices */
(PID.TID 0000.0001)    22 @      -99                            /* I = -2: 19 */
(PID.TID 0000.0001)  OB_Js = /* Southern OB local indices */
(PID.TID 0000.0001)    22 @      -99                            /* I = -2: 19 */
(PID.TID 0000.0001)  OB_Ie = /* Eastern OB local indices */
(PID.TID 0000.0001)    18 @      -99                            /* J = -2: 15 */
(PID.TID 0000.0001)  OB_Iw = /* Western OB local indices */
(PID.TID 0000.0001)    18 @      -99                            /* J = -2: 15 */
(PID.TID 0000.0001) ======== Tile bi=   2 , bj=   8 ========
(PID.TID 0000.0001)  OB_Jn = /* Northern OB local indices */
(PID.TID 0000.0001)    22 @      -99                            /* I = -2: 19 */
(PID.TID 0000.0001)  OB_Js = /* Southern OB local indices */
(PID.TID 0000.0001)    22 @      -99                            /* I = -2: 19 */
(PID.TID 0000.0001)  OB_Ie = /* Eastern OB local indices */
(PID.TID 0000.0001)    18 @      -99                            /* J = -2: 15 */
(PID.TID 0000.0001)  OB_Iw = /* Western OB local indices */
(PID.TID 0000.0001)    18 @      -99                            /* J = -2: 15 */
(PID.TID 0000.0001) ======== Tile bi=   3 , bj=   8 ========
(PID.TID 0000.0001)  OB_Jn = /* Northern OB local indices */
(PID.TID 0000.0001)    22 @      -99                            /* I = -2: 19 */
(PID.TID 0000.0001)  OB_Js = /* Southern OB local indices */
(PID.TID 0000.0001)    22 @      -99                            /* I = -2: 19 */
(PID.TID 0000.0001)  OB_Ie = /* Eastern OB local indices */
(PID.TID 0000.0001)    18 @      -99                            /* J = -2: 15 */
(PID.TID 0000.0001)  OB_Iw = /* Western OB local indices */
(PID.TID 0000.0001)    18 @      -99                            /* J = -2: 15 */
(PID.TID 0000.0001) ======== Tile bi=   4 , bj=   8 ========
(PID.TID 0000.0001)  OB_Jn = /* Northern OB local indices */
(PID.TID 0000.0001)    22 @      -99                            /* I = -2: 19 */
(PID.TID 0000.0001)  OB_Js = /* Southern OB local indices */
(PID.TID 0000.0001)    22 @      -99                            /* I = -2: 19 */
(PID.TID 0000.0001)  OB_Ie = /* Eastern OB local indices */
(PID.TID 0000.0001)    18 @      -99                            /* J = -2: 15 */
(PID.TID 0000.0001)  OB_Iw = /* Western OB local indices */
(PID.TID 0000.0001)    18 @      -99                            /* J = -2: 15 */
(PID.TID 0000.0001) ======== Tile bi=   5 , bj=   8 ========
(PID.TID 0000.0001)  OB_Jn = /* Northern OB local indices */
(PID.TID 0000.0001)    22 @      -99                            /* I = -2: 19 */
(PID.TID 0000.0001)  OB_Js = /* Southern OB local indices */
(PID.TID 0000.0001)    22 @      -99                            /* I = -2: 19 */
(PID.TID 0000.0001)  OB_Ie = /* Eastern OB local indices */
(PID.TID 0000.0001)    18 @      -99                            /* J = -2: 15 */
(PID.TID 0000.0001)  OB_Iw = /* Western OB local indices */
(PID.TID 0000.0001)    18 @      -99                            /* J = -2: 15 */
(PID.TID 0000.0001) ======== Tile bi=   6 , bj=   8 ========
(PID.TID 0000.0001)  OB_Jn = /* Northern OB local indices */
(PID.TID 0000.0001)    22 @      -99                            /* I = -2: 19 */
(PID.TID 0000.0001)  OB_Js = /* Southern OB local indices */
(PID.TID 0000.0001)    22 @      -99                            /* I = -2: 19 */
(PID.TID 0000.0001)  OB_Ie = /* Eastern OB local indices */
(PID.TID 0000.0001)    18 @      -99                            /* J = -2: 15 */
(PID.TID 0000.0001)  OB_Iw = /* Western OB local indices */
(PID.TID 0000.0001)    18 @      -99                            /* J = -2: 15 */
(PID.TID 0000.0001) ======== Tile bi=   7 , bj=   8 ========
(PID.TID 0000.0001)  OB_Jn = /* Northern OB local indices */
(PID.TID 0000.0001)    22 @      -99                            /* I = -2: 19 */
(PID.TID 0000.0001)  OB_Js = /* Southern OB local indices */
(PID.TID 0000.0001)    22 @      -99                            /* I = -2: 19 */
(PID.TID 0000.0001)  OB_Ie = /* Eastern OB local indices */
(PID.TID 0000.0001)    18 @      -99                            /* J = -2: 15 */
(PID.TID 0000.0001)  OB_Iw = /* Western OB local indices */
(PID.TID 0000.0001)    18 @      -99                            /* J = -2: 15 */
(PID.TID 0000.0001) ======== Tile bi=   8 , bj=   8 ========
(PID.TID 0000.0001)  OB_Jn = /* Northern OB local indices */
(PID.TID 0000.0001)    22 @      -99                            /* I = -2: 19 */
(PID.TID 0000.0001)  OB_Js = /* Southern OB local indices */
(PID.TID 0000.0001)    22 @      -99                            /* I = -2: 19 */
(PID.TID 0000.0001)  OB_Ie = /* Eastern OB local indices */
(PID.TID 0000.0001)    18 @      -99                            /* J = -2: 15 */
(PID.TID 0000.0001)  OB_Iw = /* Western OB local indices */
(PID.TID 0000.0001)    18 @      -99                            /* J = -2: 15 */
(PID.TID 0000.0001) ======== Tile bi=   9 , bj=   8 ========
(PID.TID 0000.0001)  OB_Jn = /* Northern OB local indices */
(PID.TID 0000.0001)    22 @      -99                            /* I = -2: 19 */
(PID.TID 0000.0001)  OB_Js = /* Southern OB local indices */
(PID.TID 0000.0001)    22 @      -99                            /* I = -2: 19 */
(PID.TID 0000.0001)  OB_Ie = /* Eastern OB local indices */
(PID.TID 0000.0001)    18 @      -99                            /* J = -2: 15 */
(PID.TID 0000.0001)  OB_Iw = /* Western OB local indices */
(PID.TID 0000.0001)    18 @      -99                            /* J = -2: 15 */
(PID.TID 0000.0001) ======== Tile bi=  10 , bj=   8 ========
(PID.TID 0000.0001)  OB_Jn = /* Northern OB local indices */
(PID.TID 0000.0001)    22 @      -99                            /* I = -2: 19 */
(PID.TID 0000.0001)  OB_Js = /* Southern OB local indices */
(PID.TID 0000.0001)    22 @      -99                            /* I = -2: 19 */
(PID.TID 0000.0001)  OB_Ie = /* Eastern OB local indices */
(PID.TID 0000.0001)    18 @      -99                            /* J = -2: 15 */
(PID.TID 0000.0001)  OB_Iw = /* Western OB local indices */
(PID.TID 0000.0001)    18 @      -99                            /* J = -2: 15 */
(PID.TID 0000.0001) ======== Tile bi=  11 , bj=   8 ========
(PID.TID 0000.0001)  OB_Jn = /* Northern OB local indices */
(PID.TID 0000.0001)    22 @      -99                            /* I = -2: 19 */
(PID.TID 0000.0001)  OB_Js = /* Southern OB local indices */
(PID.TID 0000.0001)    22 @      -99                            /* I = -2: 19 */
(PID.TID 0000.0001)  OB_Ie = /* Eastern OB local indices */
(PID.TID 0000.0001)    18 @      -99                            /* J = -2: 15 */
(PID.TID 0000.0001)  OB_Iw = /* Western OB local indices */
(PID.TID 0000.0001)    18 @      -99                            /* J = -2: 15 */
(PID.TID 0000.0001) ======== Tile bi=  12 , bj=   8 ========
(PID.TID 0000.0001)  OB_Jn = /* Northern OB local indices */
(PID.TID 0000.0001)    22 @      -99                            /* I = -2: 19 */
(PID.TID 0000.0001)  OB_Js = /* Southern OB local indices */
(PID.TID 0000.0001)    22 @      -99                            /* I = -2: 19 */
(PID.TID 0000.0001)  OB_Ie = /* Eastern OB local indices */
(PID.TID 0000.0001)    18 @      -99                            /* J = -2: 15 */
(PID.TID 0000.0001)  OB_Iw = /* Western OB local indices */
(PID.TID 0000.0001)    18 @      -99                            /* J = -2: 15 */
(PID.TID 0000.0001) ======== Tile bi=  13 , bj=   8 ========
(PID.TID 0000.0001)  OB_Jn = /* Northern OB local indices */
(PID.TID 0000.0001)    22 @      -99                            /* I = -2: 19 */
(PID.TID 0000.0001)  OB_Js = /* Southern OB local indices */
(PID.TID 0000.0001)    22 @      -99                            /* I = -2: 19 */
(PID.TID 0000.0001)  OB_Ie = /* Eastern OB local indices */
(PID.TID 0000.0001)    18 @      -99                            /* J = -2: 15 */
(PID.TID 0000.0001)  OB_Iw = /* Western OB local indices */
(PID.TID 0000.0001)    18 @      -99                            /* J = -2: 15 */
(PID.TID 0000.0001) ======== Tile bi=  14 , bj=   8 ========
(PID.TID 0000.0001)  OB_Jn = /* Northern OB local indices */
(PID.TID 0000.0001)    22 @      -99                            /* I = -2: 19 */
(PID.TID 0000.0001)  OB_Js = /* Southern OB local indices */
(PID.TID 0000.0001)    22 @      -99                            /* I = -2: 19 */
(PID.TID 0000.0001)  OB_Ie = /* Eastern OB local indices */
(PID.TID 0000.0001)    18 @      -99                            /* J = -2: 15 */
(PID.TID 0000.0001)  OB_Iw = /* Western OB local indices */
(PID.TID 0000.0001)    18 @      -99                            /* J = -2: 15 */
(PID.TID 0000.0001) ======== Tile bi=  15 , bj=   8 ========
(PID.TID 0000.0001)  OB_Jn = /* Northern OB local indices */
(PID.TID 0000.0001)    22 @      -99                            /* I = -2: 19 */
(PID.TID 0000.0001)  OB_Js = /* Southern OB local indices */
(PID.TID 0000.0001)    22 @      -99                            /* I = -2: 19 */
(PID.TID 0000.0001)  OB_Ie = /* Eastern OB local indices */
(PID.TID 0000.0001)    18 @      -99                            /* J = -2: 15 */
(PID.TID 0000.0001)  OB_Iw = /* Western OB local indices */
(PID.TID 0000.0001)    18 @      -99                            /* J = -2: 15 */
(PID.TID 0000.0001) ======== Tile bi=   1 , bj=   9 ========
(PID.TID 0000.0001)  OB_Jn = /* Northern OB local indices */
(PID.TID 0000.0001)    22 @      -99                            /* I = -2: 19 */
(PID.TID 0000.0001)  OB_Js = /* Southern OB local indices */
(PID.TID 0000.0001)    22 @      -99                            /* I = -2: 19 */
(PID.TID 0000.0001)  OB_Ie = /* Eastern OB local indices */
(PID.TID 0000.0001)    18 @      -99                            /* J = -2: 15 */
(PID.TID 0000.0001)  OB_Iw = /* Western OB local indices */
(PID.TID 0000.0001)    18 @      -99                            /* J = -2: 15 */
(PID.TID 0000.0001) ======== Tile bi=   2 , bj=   9 ========
(PID.TID 0000.0001)  OB_Jn = /* Northern OB local indices */
(PID.TID 0000.0001)    22 @      -99                            /* I = -2: 19 */
(PID.TID 0000.0001)  OB_Js = /* Southern OB local indices */
(PID.TID 0000.0001)    22 @      -99                            /* I = -2: 19 */
(PID.TID 0000.0001)  OB_Ie = /* Eastern OB local indices */
(PID.TID 0000.0001)    18 @      -99                            /* J = -2: 15 */
(PID.TID 0000.0001)  OB_Iw = /* Western OB local indices */
(PID.TID 0000.0001)    18 @      -99                            /* J = -2: 15 */
(PID.TID 0000.0001) ======== Tile bi=   3 , bj=   9 ========
(PID.TID 0000.0001)  OB_Jn = /* Northern OB local indices */
(PID.TID 0000.0001)    22 @      -99                            /* I = -2: 19 */
(PID.TID 0000.0001)  OB_Js = /* Southern OB local indices */
(PID.TID 0000.0001)    22 @      -99                            /* I = -2: 19 */
(PID.TID 0000.0001)  OB_Ie = /* Eastern OB local indices */
(PID.TID 0000.0001)    18 @      -99                            /* J = -2: 15 */
(PID.TID 0000.0001)  OB_Iw = /* Western OB local indices */
(PID.TID 0000.0001)    18 @      -99                            /* J = -2: 15 */
(PID.TID 0000.0001) ======== Tile bi=   4 , bj=   9 ========
(PID.TID 0000.0001)  OB_Jn = /* Northern OB local indices */
(PID.TID 0000.0001)    22 @      -99                            /* I = -2: 19 */
(PID.TID 0000.0001)  OB_Js = /* Southern OB local indices */
(PID.TID 0000.0001)    22 @      -99                            /* I = -2: 19 */
(PID.TID 0000.0001)  OB_Ie = /* Eastern OB local indices */
(PID.TID 0000.0001)    18 @      -99                            /* J = -2: 15 */
(PID.TID 0000.0001)  OB_Iw = /* Western OB local indices */
(PID.TID 0000.0001)    18 @      -99                            /* J = -2: 15 */
(PID.TID 0000.0001) ======== Tile bi=   5 , bj=   9 ========
(PID.TID 0000.0001)  OB_Jn = /* Northern OB local indices */
(PID.TID 0000.0001)    22 @      -99                            /* I = -2: 19 */
(PID.TID 0000.0001)  OB_Js = /* Southern OB local indices */
(PID.TID 0000.0001)    22 @      -99                            /* I = -2: 19 */
(PID.TID 0000.0001)  OB_Ie = /* Eastern OB local indices */
(PID.TID 0000.0001)    18 @      -99                            /* J = -2: 15 */
(PID.TID 0000.0001)  OB_Iw = /* Western OB local indices */
(PID.TID 0000.0001)    18 @      -99                            /* J = -2: 15 */
(PID.TID 0000.0001) ======== Tile bi=   6 , bj=   9 ========
(PID.TID 0000.0001)  OB_Jn = /* Northern OB local indices */
(PID.TID 0000.0001)    22 @      -99                            /* I = -2: 19 */
(PID.TID 0000.0001)  OB_Js = /* Southern OB local indices */
(PID.TID 0000.0001)    22 @      -99                            /* I = -2: 19 */
(PID.TID 0000.0001)  OB_Ie = /* Eastern OB local indices */
(PID.TID 0000.0001)    18 @      -99                            /* J = -2: 15 */
(PID.TID 0000.0001)  OB_Iw = /* Western OB local indices */
(PID.TID 0000.0001)    18 @      -99                            /* J = -2: 15 */
(PID.TID 0000.0001) ======== Tile bi=   7 , bj=   9 ========
(PID.TID 0000.0001)  OB_Jn = /* Northern OB local indices */
(PID.TID 0000.0001)    22 @      -99                            /* I = -2: 19 */
(PID.TID 0000.0001)  OB_Js = /* Southern OB local indices */
(PID.TID 0000.0001)    22 @      -99                            /* I = -2: 19 */
(PID.TID 0000.0001)  OB_Ie = /* Eastern OB local indices */
(PID.TID 0000.0001)    18 @      -99                            /* J = -2: 15 */
(PID.TID 0000.0001)  OB_Iw = /* Western OB local indices */
(PID.TID 0000.0001)    18 @      -99                            /* J = -2: 15 */
(PID.TID 0000.0001) ======== Tile bi=   8 , bj=   9 ========
(PID.TID 0000.0001)  OB_Jn = /* Northern OB local indices */
(PID.TID 0000.0001)    22 @      -99                            /* I = -2: 19 */
(PID.TID 0000.0001)  OB_Js = /* Southern OB local indices */
(PID.TID 0000.0001)    22 @      -99                            /* I = -2: 19 */
(PID.TID 0000.0001)  OB_Ie = /* Eastern OB local indices */
(PID.TID 0000.0001)    18 @      -99                            /* J = -2: 15 */
(PID.TID 0000.0001)  OB_Iw = /* Western OB local indices */
(PID.TID 0000.0001)    18 @      -99                            /* J = -2: 15 */
(PID.TID 0000.0001) ======== Tile bi=   9 , bj=   9 ========
(PID.TID 0000.0001)  OB_Jn = /* Northern OB local indices */
(PID.TID 0000.0001)    22 @      -99                            /* I = -2: 19 */
(PID.TID 0000.0001)  OB_Js = /* Southern OB local indices */
(PID.TID 0000.0001)    22 @      -99                            /* I = -2: 19 */
(PID.TID 0000.0001)  OB_Ie = /* Eastern OB local indices */
(PID.TID 0000.0001)    18 @      -99                            /* J = -2: 15 */
(PID.TID 0000.0001)  OB_Iw = /* Western OB local indices */
(PID.TID 0000.0001)    18 @      -99                            /* J = -2: 15 */
(PID.TID 0000.0001) ======== Tile bi=  10 , bj=   9 ========
(PID.TID 0000.0001)  OB_Jn = /* Northern OB local indices */
(PID.TID 0000.0001)    22 @      -99                            /* I = -2: 19 */
(PID.TID 0000.0001)  OB_Js = /* Southern OB local indices */
(PID.TID 0000.0001)    22 @      -99                            /* I = -2: 19 */
(PID.TID 0000.0001)  OB_Ie = /* Eastern OB local indices */
(PID.TID 0000.0001)    18 @      -99                            /* J = -2: 15 */
(PID.TID 0000.0001)  OB_Iw = /* Western OB local indices */
(PID.TID 0000.0001)    18 @      -99                            /* J = -2: 15 */
(PID.TID 0000.0001) ======== Tile bi=  11 , bj=   9 ========
(PID.TID 0000.0001)  OB_Jn = /* Northern OB local indices */
(PID.TID 0000.0001)    22 @      -99                            /* I = -2: 19 */
(PID.TID 0000.0001)  OB_Js = /* Southern OB local indices */
(PID.TID 0000.0001)    22 @      -99                            /* I = -2: 19 */
(PID.TID 0000.0001)  OB_Ie = /* Eastern OB local indices */
(PID.TID 0000.0001)    18 @      -99                            /* J = -2: 15 */
(PID.TID 0000.0001)  OB_Iw = /* Western OB local indices */
(PID.TID 0000.0001)    18 @      -99                            /* J = -2: 15 */
(PID.TID 0000.0001) ======== Tile bi=  12 , bj=   9 ========
(PID.TID 0000.0001)  OB_Jn = /* Northern OB local indices */
(PID.TID 0000.0001)    22 @      -99                            /* I = -2: 19 */
(PID.TID 0000.0001)  OB_Js = /* Southern OB local indices */
(PID.TID 0000.0001)    22 @      -99                            /* I = -2: 19 */
(PID.TID 0000.0001)  OB_Ie = /* Eastern OB local indices */
(PID.TID 0000.0001)    18 @      -99                            /* J = -2: 15 */
(PID.TID 0000.0001)  OB_Iw = /* Western OB local indices */
(PID.TID 0000.0001)    18 @      -99                            /* J = -2: 15 */
(PID.TID 0000.0001) ======== Tile bi=  13 , bj=   9 ========
(PID.TID 0000.0001)  OB_Jn = /* Northern OB local indices */
(PID.TID 0000.0001)    22 @      -99                            /* I = -2: 19 */
(PID.TID 0000.0001)  OB_Js = /* Southern OB local indices */
(PID.TID 0000.0001)    22 @      -99                            /* I = -2: 19 */
(PID.TID 0000.0001)  OB_Ie = /* Eastern OB local indices */
(PID.TID 0000.0001)    18 @      -99                            /* J = -2: 15 */
(PID.TID 0000.0001)  OB_Iw = /* Western OB local indices */
(PID.TID 0000.0001)    18 @      -99                            /* J = -2: 15 */
(PID.TID 0000.0001) ======== Tile bi=  14 , bj=   9 ========
(PID.TID 0000.0001)  OB_Jn = /* Northern OB local indices */
(PID.TID 0000.0001)    22 @      -99                            /* I = -2: 19 */
(PID.TID 0000.0001)  OB_Js = /* Southern OB local indices */
(PID.TID 0000.0001)    22 @      -99                            /* I = -2: 19 */
(PID.TID 0000.0001)  OB_Ie = /* Eastern OB local indices */
(PID.TID 0000.0001)    18 @      -99                            /* J = -2: 15 */
(PID.TID 0000.0001)  OB_Iw = /* Western OB local indices */
(PID.TID 0000.0001)    18 @      -99                            /* J = -2: 15 */
(PID.TID 0000.0001) ======== Tile bi=  15 , bj=   9 ========
(PID.TID 0000.0001)  OB_Jn = /* Northern OB local indices */
(PID.TID 0000.0001)    22 @      -99                            /* I = -2: 19 */
(PID.TID 0000.0001)  OB_Js = /* Southern OB local indices */
(PID.TID 0000.0001)    22 @      -99                            /* I = -2: 19 */
(PID.TID 0000.0001)  OB_Ie = /* Eastern OB local indices */
(PID.TID 0000.0001)    18 @      -99                            /* J = -2: 15 */
(PID.TID 0000.0001)  OB_Iw = /* Western OB local indices */
(PID.TID 0000.0001)    18 @      -99                            /* J = -2: 15 */
(PID.TID 0000.0001) ======== Tile bi=   1 , bj=  10 ========
(PID.TID 0000.0001)  OB_Jn = /* Northern OB local indices */
(PID.TID 0000.0001)    22 @      -99                            /* I = -2: 19 */
(PID.TID 0000.0001)  OB_Js = /* Southern OB local indices */
(PID.TID 0000.0001)    22 @      -99                            /* I = -2: 19 */
(PID.TID 0000.0001)  OB_Ie = /* Eastern OB local indices */
(PID.TID 0000.0001)    18 @      -99                            /* J = -2: 15 */
(PID.TID 0000.0001)  OB_Iw = /* Western OB local indices */
(PID.TID 0000.0001)    18 @      -99                            /* J = -2: 15 */
(PID.TID 0000.0001) ======== Tile bi=   2 , bj=  10 ========
(PID.TID 0000.0001)  OB_Jn = /* Northern OB local indices */
(PID.TID 0000.0001)    22 @      -99                            /* I = -2: 19 */
(PID.TID 0000.0001)  OB_Js = /* Southern OB local indices */
(PID.TID 0000.0001)    22 @      -99                            /* I = -2: 19 */
(PID.TID 0000.0001)  OB_Ie = /* Eastern OB local indices */
(PID.TID 0000.0001)    18 @      -99                            /* J = -2: 15 */
(PID.TID 0000.0001)  OB_Iw = /* Western OB local indices */
(PID.TID 0000.0001)    18 @      -99                            /* J = -2: 15 */
(PID.TID 0000.0001) ======== Tile bi=   3 , bj=  10 ========
(PID.TID 0000.0001)  OB_Jn = /* Northern OB local indices */
(PID.TID 0000.0001)    22 @      -99                            /* I = -2: 19 */
(PID.TID 0000.0001)  OB_Js = /* Southern OB local indices */
(PID.TID 0000.0001)    22 @      -99                            /* I = -2: 19 */
(PID.TID 0000.0001)  OB_Ie = /* Eastern OB local indices */
(PID.TID 0000.0001)    18 @      -99                            /* J = -2: 15 */
(PID.TID 0000.0001)  OB_Iw = /* Western OB local indices */
(PID.TID 0000.0001)    18 @      -99                            /* J = -2: 15 */
(PID.TID 0000.0001) ======== Tile bi=   4 , bj=  10 ========
(PID.TID 0000.0001)  OB_Jn = /* Northern OB local indices */
(PID.TID 0000.0001)    22 @      -99                            /* I = -2: 19 */
(PID.TID 0000.0001)  OB_Js = /* Southern OB local indices */
(PID.TID 0000.0001)    22 @      -99                            /* I = -2: 19 */
(PID.TID 0000.0001)  OB_Ie = /* Eastern OB local indices */
(PID.TID 0000.0001)    18 @      -99                            /* J = -2: 15 */
(PID.TID 0000.0001)  OB_Iw = /* Western OB local indices */
(PID.TID 0000.0001)    18 @      -99                            /* J = -2: 15 */
(PID.TID 0000.0001) ======== Tile bi=   5 , bj=  10 ========
(PID.TID 0000.0001)  OB_Jn = /* Northern OB local indices */
(PID.TID 0000.0001)    22 @      -99                            /* I = -2: 19 */
(PID.TID 0000.0001)  OB_Js = /* Southern OB local indices */
(PID.TID 0000.0001)    22 @      -99                            /* I = -2: 19 */
(PID.TID 0000.0001)  OB_Ie = /* Eastern OB local indices */
(PID.TID 0000.0001)    18 @      -99                            /* J = -2: 15 */
(PID.TID 0000.0001)  OB_Iw = /* Western OB local indices */
(PID.TID 0000.0001)    18 @      -99                            /* J = -2: 15 */
(PID.TID 0000.0001) ======== Tile bi=   6 , bj=  10 ========
(PID.TID 0000.0001)  OB_Jn = /* Northern OB local indices */
(PID.TID 0000.0001)    22 @      -99                            /* I = -2: 19 */
(PID.TID 0000.0001)  OB_Js = /* Southern OB local indices */
(PID.TID 0000.0001)    22 @      -99                            /* I = -2: 19 */
(PID.TID 0000.0001)  OB_Ie = /* Eastern OB local indices */
(PID.TID 0000.0001)    18 @      -99                            /* J = -2: 15 */
(PID.TID 0000.0001)  OB_Iw = /* Western OB local indices */
(PID.TID 0000.0001)    18 @      -99                            /* J = -2: 15 */
(PID.TID 0000.0001) ======== Tile bi=   7 , bj=  10 ========
(PID.TID 0000.0001)  OB_Jn = /* Northern OB local indices */
(PID.TID 0000.0001)    22 @      -99                            /* I = -2: 19 */
(PID.TID 0000.0001)  OB_Js = /* Southern OB local indices */
(PID.TID 0000.0001)    22 @      -99                            /* I = -2: 19 */
(PID.TID 0000.0001)  OB_Ie = /* Eastern OB local indices */
(PID.TID 0000.0001)    18 @      -99                            /* J = -2: 15 */
(PID.TID 0000.0001)  OB_Iw = /* Western OB local indices */
(PID.TID 0000.0001)    18 @      -99                            /* J = -2: 15 */
(PID.TID 0000.0001) ======== Tile bi=   8 , bj=  10 ========
(PID.TID 0000.0001)  OB_Jn = /* Northern OB local indices */
(PID.TID 0000.0001)    22 @      -99                            /* I = -2: 19 */
(PID.TID 0000.0001)  OB_Js = /* Southern OB local indices */
(PID.TID 0000.0001)    22 @      -99                            /* I = -2: 19 */
(PID.TID 0000.0001)  OB_Ie = /* Eastern OB local indices */
(PID.TID 0000.0001)    18 @      -99                            /* J = -2: 15 */
(PID.TID 0000.0001)  OB_Iw = /* Western OB local indices */
(PID.TID 0000.0001)    18 @      -99                            /* J = -2: 15 */
(PID.TID 0000.0001) ======== Tile bi=   9 , bj=  10 ========
(PID.TID 0000.0001)  OB_Jn = /* Northern OB local indices */
(PID.TID 0000.0001)    22 @      -99                            /* I = -2: 19 */
(PID.TID 0000.0001)  OB_Js = /* Southern OB local indices */
(PID.TID 0000.0001)    22 @      -99                            /* I = -2: 19 */
(PID.TID 0000.0001)  OB_Ie = /* Eastern OB local indices */
(PID.TID 0000.0001)    18 @      -99                            /* J = -2: 15 */
(PID.TID 0000.0001)  OB_Iw = /* Western OB local indices */
(PID.TID 0000.0001)    18 @      -99                            /* J = -2: 15 */
(PID.TID 0000.0001) ======== Tile bi=  10 , bj=  10 ========
(PID.TID 0000.0001)  OB_Jn = /* Northern OB local indices */
(PID.TID 0000.0001)    22 @      -99                            /* I = -2: 19 */
(PID.TID 0000.0001)  OB_Js = /* Southern OB local indices */
(PID.TID 0000.0001)    22 @      -99                            /* I = -2: 19 */
(PID.TID 0000.0001)  OB_Ie = /* Eastern OB local indices */
(PID.TID 0000.0001)    18 @      -99                            /* J = -2: 15 */
(PID.TID 0000.0001)  OB_Iw = /* Western OB local indices */
(PID.TID 0000.0001)    18 @      -99                            /* J = -2: 15 */
(PID.TID 0000.0001) ======== Tile bi=  11 , bj=  10 ========
(PID.TID 0000.0001)  OB_Jn = /* Northern OB local indices */
(PID.TID 0000.0001)    22 @      -99                            /* I = -2: 19 */
(PID.TID 0000.0001)  OB_Js = /* Southern OB local indices */
(PID.TID 0000.0001)    22 @      -99                            /* I = -2: 19 */
(PID.TID 0000.0001)  OB_Ie = /* Eastern OB local indices */
(PID.TID 0000.0001)    18 @      -99                            /* J = -2: 15 */
(PID.TID 0000.0001)  OB_Iw = /* Western OB local indices */
(PID.TID 0000.0001)    18 @      -99                            /* J = -2: 15 */
(PID.TID 0000.0001) ======== Tile bi=  12 , bj=  10 ========
(PID.TID 0000.0001)  OB_Jn = /* Northern OB local indices */
(PID.TID 0000.0001)    22 @      -99                            /* I = -2: 19 */
(PID.TID 0000.0001)  OB_Js = /* Southern OB local indices */
(PID.TID 0000.0001)    22 @      -99                            /* I = -2: 19 */
(PID.TID 0000.0001)  OB_Ie = /* Eastern OB local indices */
(PID.TID 0000.0001)    18 @      -99                            /* J = -2: 15 */
(PID.TID 0000.0001)  OB_Iw = /* Western OB local indices */
(PID.TID 0000.0001)    18 @      -99                            /* J = -2: 15 */
(PID.TID 0000.0001) ======== Tile bi=  13 , bj=  10 ========
(PID.TID 0000.0001)  OB_Jn = /* Northern OB local indices */
(PID.TID 0000.0001)    22 @      -99                            /* I = -2: 19 */
(PID.TID 0000.0001)  OB_Js = /* Southern OB local indices */
(PID.TID 0000.0001)    22 @      -99                            /* I = -2: 19 */
(PID.TID 0000.0001)  OB_Ie = /* Eastern OB local indices */
(PID.TID 0000.0001)    18 @      -99                            /* J = -2: 15 */
(PID.TID 0000.0001)  OB_Iw = /* Western OB local indices */
(PID.TID 0000.0001)    18 @      -99                            /* J = -2: 15 */
(PID.TID 0000.0001) ======== Tile bi=  14 , bj=  10 ========
(PID.TID 0000.0001)  OB_Jn = /* Northern OB local indices */
(PID.TID 0000.0001)    22 @      -99                            /* I = -2: 19 */
(PID.TID 0000.0001)  OB_Js = /* Southern OB local indices */
(PID.TID 0000.0001)    22 @      -99                            /* I = -2: 19 */
(PID.TID 0000.0001)  OB_Ie = /* Eastern OB local indices */
(PID.TID 0000.0001)    18 @      -99                            /* J = -2: 15 */
(PID.TID 0000.0001)  OB_Iw = /* Western OB local indices */
(PID.TID 0000.0001)    18 @      -99                            /* J = -2: 15 */
(PID.TID 0000.0001) ======== Tile bi=  15 , bj=  10 ========
(PID.TID 0000.0001)  OB_Jn = /* Northern OB local indices */
(PID.TID 0000.0001)    22 @      -99                            /* I = -2: 19 */
(PID.TID 0000.0001)  OB_Js = /* Southern OB local indices */
(PID.TID 0000.0001)    22 @      -99                            /* I = -2: 19 */
(PID.TID 0000.0001)  OB_Ie = /* Eastern OB local indices */
(PID.TID 0000.0001)    18 @      -99                            /* J = -2: 15 */
(PID.TID 0000.0001)  OB_Iw = /* Western OB local indices */
(PID.TID 0000.0001)    18 @      -99                            /* J = -2: 15 */
(PID.TID 0000.0001) ======== Tile bi=   1 , bj=  11 ========
(PID.TID 0000.0001)  OB_Jn = /* Northern OB local indices */
(PID.TID 0000.0001)    22 @      -99                            /* I = -2: 19 */
(PID.TID 0000.0001)  OB_Js = /* Southern OB local indices */
(PID.TID 0000.0001)    22 @      -99                            /* I = -2: 19 */
(PID.TID 0000.0001)  OB_Ie = /* Eastern OB local indices */
(PID.TID 0000.0001)    18 @      -99                            /* J = -2: 15 */
(PID.TID 0000.0001)  OB_Iw = /* Western OB local indices */
(PID.TID 0000.0001)    18 @      -99                            /* J = -2: 15 */
(PID.TID 0000.0001) ======== Tile bi=   2 , bj=  11 ========
(PID.TID 0000.0001)  OB_Jn = /* Northern OB local indices */
(PID.TID 0000.0001)    22 @      -99                            /* I = -2: 19 */
(PID.TID 0000.0001)  OB_Js = /* Southern OB local indices */
(PID.TID 0000.0001)    22 @      -99                            /* I = -2: 19 */
(PID.TID 0000.0001)  OB_Ie = /* Eastern OB local indices */
(PID.TID 0000.0001)    18 @      -99                            /* J = -2: 15 */
(PID.TID 0000.0001)  OB_Iw = /* Western OB local indices */
(PID.TID 0000.0001)    18 @      -99                            /* J = -2: 15 */
(PID.TID 0000.0001) ======== Tile bi=   3 , bj=  11 ========
(PID.TID 0000.0001)  OB_Jn = /* Northern OB local indices */
(PID.TID 0000.0001)    22 @      -99                            /* I = -2: 19 */
(PID.TID 0000.0001)  OB_Js = /* Southern OB local indices */
(PID.TID 0000.0001)    22 @      -99                            /* I = -2: 19 */
(PID.TID 0000.0001)  OB_Ie = /* Eastern OB local indices */
(PID.TID 0000.0001)    18 @      -99                            /* J = -2: 15 */
(PID.TID 0000.0001)  OB_Iw = /* Western OB local indices */
(PID.TID 0000.0001)    18 @      -99                            /* J = -2: 15 */
(PID.TID 0000.0001) ======== Tile bi=   4 , bj=  11 ========
(PID.TID 0000.0001)  OB_Jn = /* Northern OB local indices */
(PID.TID 0000.0001)    22 @      -99                            /* I = -2: 19 */
(PID.TID 0000.0001)  OB_Js = /* Southern OB local indices */
(PID.TID 0000.0001)    22 @      -99                            /* I = -2: 19 */
(PID.TID 0000.0001)  OB_Ie = /* Eastern OB local indices */
(PID.TID 0000.0001)    18 @      -99                            /* J = -2: 15 */
(PID.TID 0000.0001)  OB_Iw = /* Western OB local indices */
(PID.TID 0000.0001)    18 @      -99                            /* J = -2: 15 */
(PID.TID 0000.0001) ======== Tile bi=   5 , bj=  11 ========
(PID.TID 0000.0001)  OB_Jn = /* Northern OB local indices */
(PID.TID 0000.0001)    22 @      -99                            /* I = -2: 19 */
(PID.TID 0000.0001)  OB_Js = /* Southern OB local indices */
(PID.TID 0000.0001)    22 @      -99                            /* I = -2: 19 */
(PID.TID 0000.0001)  OB_Ie = /* Eastern OB local indices */
(PID.TID 0000.0001)    18 @      -99                            /* J = -2: 15 */
(PID.TID 0000.0001)  OB_Iw = /* Western OB local indices */
(PID.TID 0000.0001)    18 @      -99                            /* J = -2: 15 */
(PID.TID 0000.0001) ======== Tile bi=   6 , bj=  11 ========
(PID.TID 0000.0001)  OB_Jn = /* Northern OB local indices */
(PID.TID 0000.0001)    22 @      -99                            /* I = -2: 19 */
(PID.TID 0000.0001)  OB_Js = /* Southern OB local indices */
(PID.TID 0000.0001)    22 @      -99                            /* I = -2: 19 */
(PID.TID 0000.0001)  OB_Ie = /* Eastern OB local indices */
(PID.TID 0000.0001)    18 @      -99                            /* J = -2: 15 */
(PID.TID 0000.0001)  OB_Iw = /* Western OB local indices */
(PID.TID 0000.0001)    18 @      -99                            /* J = -2: 15 */
(PID.TID 0000.0001) ======== Tile bi=   7 , bj=  11 ========
(PID.TID 0000.0001)  OB_Jn = /* Northern OB local indices */
(PID.TID 0000.0001)    22 @      -99                            /* I = -2: 19 */
(PID.TID 0000.0001)  OB_Js = /* Southern OB local indices */
(PID.TID 0000.0001)    22 @      -99                            /* I = -2: 19 */
(PID.TID 0000.0001)  OB_Ie = /* Eastern OB local indices */
(PID.TID 0000.0001)    18 @      -99                            /* J = -2: 15 */
(PID.TID 0000.0001)  OB_Iw = /* Western OB local indices */
(PID.TID 0000.0001)    18 @      -99                            /* J = -2: 15 */
(PID.TID 0000.0001) ======== Tile bi=   8 , bj=  11 ========
(PID.TID 0000.0001)  OB_Jn = /* Northern OB local indices */
(PID.TID 0000.0001)    22 @      -99                            /* I = -2: 19 */
(PID.TID 0000.0001)  OB_Js = /* Southern OB local indices */
(PID.TID 0000.0001)    22 @      -99                            /* I = -2: 19 */
(PID.TID 0000.0001)  OB_Ie = /* Eastern OB local indices */
(PID.TID 0000.0001)    18 @      -99                            /* J = -2: 15 */
(PID.TID 0000.0001)  OB_Iw = /* Western OB local indices */
(PID.TID 0000.0001)    18 @      -99                            /* J = -2: 15 */
(PID.TID 0000.0001) ======== Tile bi=   9 , bj=  11 ========
(PID.TID 0000.0001)  OB_Jn = /* Northern OB local indices */
(PID.TID 0000.0001)    22 @      -99                            /* I = -2: 19 */
(PID.TID 0000.0001)  OB_Js = /* Southern OB local indices */
(PID.TID 0000.0001)    22 @      -99                            /* I = -2: 19 */
(PID.TID 0000.0001)  OB_Ie = /* Eastern OB local indices */
(PID.TID 0000.0001)    18 @      -99                            /* J = -2: 15 */
(PID.TID 0000.0001)  OB_Iw = /* Western OB local indices */
(PID.TID 0000.0001)    18 @      -99                            /* J = -2: 15 */
(PID.TID 0000.0001) ======== Tile bi=  10 , bj=  11 ========
(PID.TID 0000.0001)  OB_Jn = /* Northern OB local indices */
(PID.TID 0000.0001)    22 @      -99                            /* I = -2: 19 */
(PID.TID 0000.0001)  OB_Js = /* Southern OB local indices */
(PID.TID 0000.0001)    22 @      -99                            /* I = -2: 19 */
(PID.TID 0000.0001)  OB_Ie = /* Eastern OB local indices */
(PID.TID 0000.0001)    18 @      -99                            /* J = -2: 15 */
(PID.TID 0000.0001)  OB_Iw = /* Western OB local indices */
(PID.TID 0000.0001)    18 @      -99                            /* J = -2: 15 */
(PID.TID 0000.0001) ======== Tile bi=  11 , bj=  11 ========
(PID.TID 0000.0001)  OB_Jn = /* Northern OB local indices */
(PID.TID 0000.0001)    22 @      -99                            /* I = -2: 19 */
(PID.TID 0000.0001)  OB_Js = /* Southern OB local indices */
(PID.TID 0000.0001)    22 @      -99                            /* I = -2: 19 */
(PID.TID 0000.0001)  OB_Ie = /* Eastern OB local indices */
(PID.TID 0000.0001)    18 @      -99                            /* J = -2: 15 */
(PID.TID 0000.0001)  OB_Iw = /* Western OB local indices */
(PID.TID 0000.0001)    18 @      -99                            /* J = -2: 15 */
(PID.TID 0000.0001) ======== Tile bi=  12 , bj=  11 ========
(PID.TID 0000.0001)  OB_Jn = /* Northern OB local indices */
(PID.TID 0000.0001)    22 @      -99                            /* I = -2: 19 */
(PID.TID 0000.0001)  OB_Js = /* Southern OB local indices */
(PID.TID 0000.0001)    22 @      -99                            /* I = -2: 19 */
(PID.TID 0000.0001)  OB_Ie = /* Eastern OB local indices */
(PID.TID 0000.0001)    18 @      -99                            /* J = -2: 15 */
(PID.TID 0000.0001)  OB_Iw = /* Western OB local indices */
(PID.TID 0000.0001)    18 @      -99                            /* J = -2: 15 */
(PID.TID 0000.0001) ======== Tile bi=  13 , bj=  11 ========
(PID.TID 0000.0001)  OB_Jn = /* Northern OB local indices */
(PID.TID 0000.0001)    22 @      -99                            /* I = -2: 19 */
(PID.TID 0000.0001)  OB_Js = /* Southern OB local indices */
(PID.TID 0000.0001)    22 @      -99                            /* I = -2: 19 */
(PID.TID 0000.0001)  OB_Ie = /* Eastern OB local indices */
(PID.TID 0000.0001)    18 @      -99                            /* J = -2: 15 */
(PID.TID 0000.0001)  OB_Iw = /* Western OB local indices */
(PID.TID 0000.0001)    18 @      -99                            /* J = -2: 15 */
(PID.TID 0000.0001) ======== Tile bi=  14 , bj=  11 ========
(PID.TID 0000.0001)  OB_Jn = /* Northern OB local indices */
(PID.TID 0000.0001)    22 @      -99                            /* I = -2: 19 */
(PID.TID 0000.0001)  OB_Js = /* Southern OB local indices */
(PID.TID 0000.0001)    22 @      -99                            /* I = -2: 19 */
(PID.TID 0000.0001)  OB_Ie = /* Eastern OB local indices */
(PID.TID 0000.0001)    18 @      -99                            /* J = -2: 15 */
(PID.TID 0000.0001)  OB_Iw = /* Western OB local indices */
(PID.TID 0000.0001)    18 @      -99                            /* J = -2: 15 */
(PID.TID 0000.0001) ======== Tile bi=  15 , bj=  11 ========
(PID.TID 0000.0001)  OB_Jn = /* Northern OB local indices */
(PID.TID 0000.0001)    22 @      -99                            /* I = -2: 19 */
(PID.TID 0000.0001)  OB_Js = /* Southern OB local indices */
(PID.TID 0000.0001)    22 @      -99                            /* I = -2: 19 */
(PID.TID 0000.0001)  OB_Ie = /* Eastern OB local indices */
(PID.TID 0000.0001)    18 @      -99                            /* J = -2: 15 */
(PID.TID 0000.0001)  OB_Iw = /* Western OB local indices */
(PID.TID 0000.0001)    18 @      -99                            /* J = -2: 15 */
(PID.TID 0000.0001) ======== Tile bi=   1 , bj=  12 ========
(PID.TID 0000.0001)  OB_Jn = /* Northern OB local indices */
(PID.TID 0000.0001)    22 @      -99                            /* I = -2: 19 */
(PID.TID 0000.0001)  OB_Js = /* Southern OB local indices */
(PID.TID 0000.0001)    22 @      -99                            /* I = -2: 19 */
(PID.TID 0000.0001)  OB_Ie = /* Eastern OB local indices */
(PID.TID 0000.0001)    18 @      -99                            /* J = -2: 15 */
(PID.TID 0000.0001)  OB_Iw = /* Western OB local indices */
(PID.TID 0000.0001)    18 @      -99                            /* J = -2: 15 */
(PID.TID 0000.0001) ======== Tile bi=   2 , bj=  12 ========
(PID.TID 0000.0001)  OB_Jn = /* Northern OB local indices */
(PID.TID 0000.0001)    22 @      -99                            /* I = -2: 19 */
(PID.TID 0000.0001)  OB_Js = /* Southern OB local indices */
(PID.TID 0000.0001)    22 @      -99                            /* I = -2: 19 */
(PID.TID 0000.0001)  OB_Ie = /* Eastern OB local indices */
(PID.TID 0000.0001)    18 @      -99                            /* J = -2: 15 */
(PID.TID 0000.0001)  OB_Iw = /* Western OB local indices */
(PID.TID 0000.0001)    18 @      -99                            /* J = -2: 15 */
(PID.TID 0000.0001) ======== Tile bi=   3 , bj=  12 ========
(PID.TID 0000.0001)  OB_Jn = /* Northern OB local indices */
(PID.TID 0000.0001)    22 @      -99                            /* I = -2: 19 */
(PID.TID 0000.0001)  OB_Js = /* Southern OB local indices */
(PID.TID 0000.0001)    22 @      -99                            /* I = -2: 19 */
(PID.TID 0000.0001)  OB_Ie = /* Eastern OB local indices */
(PID.TID 0000.0001)    18 @      -99                            /* J = -2: 15 */
(PID.TID 0000.0001)  OB_Iw = /* Western OB local indices */
(PID.TID 0000.0001)    18 @      -99                            /* J = -2: 15 */
(PID.TID 0000.0001) ======== Tile bi=   4 , bj=  12 ========
(PID.TID 0000.0001)  OB_Jn = /* Northern OB local indices */
(PID.TID 0000.0001)    22 @      -99                            /* I = -2: 19 */
(PID.TID 0000.0001)  OB_Js = /* Southern OB local indices */
(PID.TID 0000.0001)    22 @      -99                            /* I = -2: 19 */
(PID.TID 0000.0001)  OB_Ie = /* Eastern OB local indices */
(PID.TID 0000.0001)    18 @      -99                            /* J = -2: 15 */
(PID.TID 0000.0001)  OB_Iw = /* Western OB local indices */
(PID.TID 0000.0001)    18 @      -99                            /* J = -2: 15 */
(PID.TID 0000.0001) ======== Tile bi=   5 , bj=  12 ========
(PID.TID 0000.0001)  OB_Jn = /* Northern OB local indices */
(PID.TID 0000.0001)    22 @      -99                            /* I = -2: 19 */
(PID.TID 0000.0001)  OB_Js = /* Southern OB local indices */
(PID.TID 0000.0001)    22 @      -99                            /* I = -2: 19 */
(PID.TID 0000.0001)  OB_Ie = /* Eastern OB local indices */
(PID.TID 0000.0001)    18 @      -99                            /* J = -2: 15 */
(PID.TID 0000.0001)  OB_Iw = /* Western OB local indices */
(PID.TID 0000.0001)    18 @      -99                            /* J = -2: 15 */
(PID.TID 0000.0001) ======== Tile bi=   6 , bj=  12 ========
(PID.TID 0000.0001)  OB_Jn = /* Northern OB local indices */
(PID.TID 0000.0001)    22 @      -99                            /* I = -2: 19 */
(PID.TID 0000.0001)  OB_Js = /* Southern OB local indices */
(PID.TID 0000.0001)    22 @      -99                            /* I = -2: 19 */
(PID.TID 0000.0001)  OB_Ie = /* Eastern OB local indices */
(PID.TID 0000.0001)    18 @      -99                            /* J = -2: 15 */
(PID.TID 0000.0001)  OB_Iw = /* Western OB local indices */
(PID.TID 0000.0001)    18 @      -99                            /* J = -2: 15 */
(PID.TID 0000.0001) ======== Tile bi=   7 , bj=  12 ========
(PID.TID 0000.0001)  OB_Jn = /* Northern OB local indices */
(PID.TID 0000.0001)    22 @      -99                            /* I = -2: 19 */
(PID.TID 0000.0001)  OB_Js = /* Southern OB local indices */
(PID.TID 0000.0001)    22 @      -99                            /* I = -2: 19 */
(PID.TID 0000.0001)  OB_Ie = /* Eastern OB local indices */
(PID.TID 0000.0001)    18 @      -99                            /* J = -2: 15 */
(PID.TID 0000.0001)  OB_Iw = /* Western OB local indices */
(PID.TID 0000.0001)    18 @      -99                            /* J = -2: 15 */
(PID.TID 0000.0001) ======== Tile bi=   8 , bj=  12 ========
(PID.TID 0000.0001)  OB_Jn = /* Northern OB local indices */
(PID.TID 0000.0001)    22 @      -99                            /* I = -2: 19 */
(PID.TID 0000.0001)  OB_Js = /* Southern OB local indices */
(PID.TID 0000.0001)    22 @      -99                            /* I = -2: 19 */
(PID.TID 0000.0001)  OB_Ie = /* Eastern OB local indices */
(PID.TID 0000.0001)    18 @      -99                            /* J = -2: 15 */
(PID.TID 0000.0001)  OB_Iw = /* Western OB local indices */
(PID.TID 0000.0001)    18 @      -99                            /* J = -2: 15 */
(PID.TID 0000.0001) ======== Tile bi=   9 , bj=  12 ========
(PID.TID 0000.0001)  OB_Jn = /* Northern OB local indices */
(PID.TID 0000.0001)    22 @      -99                            /* I = -2: 19 */
(PID.TID 0000.0001)  OB_Js = /* Southern OB local indices */
(PID.TID 0000.0001)    22 @      -99                            /* I = -2: 19 */
(PID.TID 0000.0001)  OB_Ie = /* Eastern OB local indices */
(PID.TID 0000.0001)    18 @      -99                            /* J = -2: 15 */
(PID.TID 0000.0001)  OB_Iw = /* Western OB local indices */
(PID.TID 0000.0001)    18 @      -99                            /* J = -2: 15 */
(PID.TID 0000.0001) ======== Tile bi=  10 , bj=  12 ========
(PID.TID 0000.0001)  OB_Jn = /* Northern OB local indices */
(PID.TID 0000.0001)    22 @      -99                            /* I = -2: 19 */
(PID.TID 0000.0001)  OB_Js = /* Southern OB local indices */
(PID.TID 0000.0001)    22 @      -99                            /* I = -2: 19 */
(PID.TID 0000.0001)  OB_Ie = /* Eastern OB local indices */
(PID.TID 0000.0001)    18 @      -99                            /* J = -2: 15 */
(PID.TID 0000.0001)  OB_Iw = /* Western OB local indices */
(PID.TID 0000.0001)    18 @      -99                            /* J = -2: 15 */
(PID.TID 0000.0001) ======== Tile bi=  11 , bj=  12 ========
(PID.TID 0000.0001)  OB_Jn = /* Northern OB local indices */
(PID.TID 0000.0001)    22 @      -99                            /* I = -2: 19 */
(PID.TID 0000.0001)  OB_Js = /* Southern OB local indices */
(PID.TID 0000.0001)    22 @      -99                            /* I = -2: 19 */
(PID.TID 0000.0001)  OB_Ie = /* Eastern OB local indices */
(PID.TID 0000.0001)    18 @      -99                            /* J = -2: 15 */
(PID.TID 0000.0001)  OB_Iw = /* Western OB local indices */
(PID.TID 0000.0001)    18 @      -99                            /* J = -2: 15 */
(PID.TID 0000.0001) ======== Tile bi=  12 , bj=  12 ========
(PID.TID 0000.0001)  OB_Jn = /* Northern OB local indices */
(PID.TID 0000.0001)    22 @      -99                            /* I = -2: 19 */
(PID.TID 0000.0001)  OB_Js = /* Southern OB local indices */
(PID.TID 0000.0001)    22 @      -99                            /* I = -2: 19 */
(PID.TID 0000.0001)  OB_Ie = /* Eastern OB local indices */
(PID.TID 0000.0001)    18 @      -99                            /* J = -2: 15 */
(PID.TID 0000.0001)  OB_Iw = /* Western OB local indices */
(PID.TID 0000.0001)    18 @      -99                            /* J = -2: 15 */
(PID.TID 0000.0001) ======== Tile bi=  13 , bj=  12 ========
(PID.TID 0000.0001)  OB_Jn = /* Northern OB local indices */
(PID.TID 0000.0001)    22 @      -99                            /* I = -2: 19 */
(PID.TID 0000.0001)  OB_Js = /* Southern OB local indices */
(PID.TID 0000.0001)    22 @      -99                            /* I = -2: 19 */
(PID.TID 0000.0001)  OB_Ie = /* Eastern OB local indices */
(PID.TID 0000.0001)    18 @      -99                            /* J = -2: 15 */
(PID.TID 0000.0001)  OB_Iw = /* Western OB local indices */
(PID.TID 0000.0001)    18 @      -99                            /* J = -2: 15 */
(PID.TID 0000.0001) ======== Tile bi=  14 , bj=  12 ========
(PID.TID 0000.0001)  OB_Jn = /* Northern OB local indices */
(PID.TID 0000.0001)    22 @      -99                            /* I = -2: 19 */
(PID.TID 0000.0001)  OB_Js = /* Southern OB local indices */
(PID.TID 0000.0001)    22 @      -99                            /* I = -2: 19 */
(PID.TID 0000.0001)  OB_Ie = /* Eastern OB local indices */
(PID.TID 0000.0001)    18 @      -99                            /* J = -2: 15 */
(PID.TID 0000.0001)  OB_Iw = /* Western OB local indices */
(PID.TID 0000.0001)    18 @      -99                            /* J = -2: 15 */
(PID.TID 0000.0001) ======== Tile bi=  15 , bj=  12 ========
(PID.TID 0000.0001)  OB_Jn = /* Northern OB local indices */
(PID.TID 0000.0001)    22 @      -99                            /* I = -2: 19 */
(PID.TID 0000.0001)  OB_Js = /* Southern OB local indices */
(PID.TID 0000.0001)    22 @      -99                            /* I = -2: 19 */
(PID.TID 0000.0001)  OB_Ie = /* Eastern OB local indices */
(PID.TID 0000.0001)    18 @      -99                            /* J = -2: 15 */
(PID.TID 0000.0001)  OB_Iw = /* Western OB local indices */
(PID.TID 0000.0001)    18 @      -99                            /* J = -2: 15 */
(PID.TID 0000.0001) ======== Tile bi=   1 , bj=  13 ========
(PID.TID 0000.0001)  OB_Jn = /* Northern OB local indices */
(PID.TID 0000.0001)    22 @      -99                            /* I = -2: 19 */
(PID.TID 0000.0001)  OB_Js = /* Southern OB local indices */
(PID.TID 0000.0001)    22 @      -99                            /* I = -2: 19 */
(PID.TID 0000.0001)  OB_Ie = /* Eastern OB local indices */
(PID.TID 0000.0001)    18 @      -99                            /* J = -2: 15 */
(PID.TID 0000.0001)  OB_Iw = /* Western OB local indices */
(PID.TID 0000.0001)    18 @      -99                            /* J = -2: 15 */
(PID.TID 0000.0001) ======== Tile bi=   2 , bj=  13 ========
(PID.TID 0000.0001)  OB_Jn = /* Northern OB local indices */
(PID.TID 0000.0001)    22 @      -99                            /* I = -2: 19 */
(PID.TID 0000.0001)  OB_Js = /* Southern OB local indices */
(PID.TID 0000.0001)    22 @      -99                            /* I = -2: 19 */
(PID.TID 0000.0001)  OB_Ie = /* Eastern OB local indices */
(PID.TID 0000.0001)    18 @      -99                            /* J = -2: 15 */
(PID.TID 0000.0001)  OB_Iw = /* Western OB local indices */
(PID.TID 0000.0001)    18 @      -99                            /* J = -2: 15 */
(PID.TID 0000.0001) ======== Tile bi=   3 , bj=  13 ========
(PID.TID 0000.0001)  OB_Jn = /* Northern OB local indices */
(PID.TID 0000.0001)    22 @      -99                            /* I = -2: 19 */
(PID.TID 0000.0001)  OB_Js = /* Southern OB local indices */
(PID.TID 0000.0001)    22 @      -99                            /* I = -2: 19 */
(PID.TID 0000.0001)  OB_Ie = /* Eastern OB local indices */
(PID.TID 0000.0001)    18 @      -99                            /* J = -2: 15 */
(PID.TID 0000.0001)  OB_Iw = /* Western OB local indices */
(PID.TID 0000.0001)    18 @      -99                            /* J = -2: 15 */
(PID.TID 0000.0001) ======== Tile bi=   4 , bj=  13 ========
(PID.TID 0000.0001)  OB_Jn = /* Northern OB local indices */
(PID.TID 0000.0001)    22 @      -99                            /* I = -2: 19 */
(PID.TID 0000.0001)  OB_Js = /* Southern OB local indices */
(PID.TID 0000.0001)    22 @      -99                            /* I = -2: 19 */
(PID.TID 0000.0001)  OB_Ie = /* Eastern OB local indices */
(PID.TID 0000.0001)    18 @      -99                            /* J = -2: 15 */
(PID.TID 0000.0001)  OB_Iw = /* Western OB local indices */
(PID.TID 0000.0001)    18 @      -99                            /* J = -2: 15 */
(PID.TID 0000.0001) ======== Tile bi=   5 , bj=  13 ========
(PID.TID 0000.0001)  OB_Jn = /* Northern OB local indices */
(PID.TID 0000.0001)    22 @      -99                            /* I = -2: 19 */
(PID.TID 0000.0001)  OB_Js = /* Southern OB local indices */
(PID.TID 0000.0001)    22 @      -99                            /* I = -2: 19 */
(PID.TID 0000.0001)  OB_Ie = /* Eastern OB local indices */
(PID.TID 0000.0001)    18 @      -99                            /* J = -2: 15 */
(PID.TID 0000.0001)  OB_Iw = /* Western OB local indices */
(PID.TID 0000.0001)    18 @      -99                            /* J = -2: 15 */
(PID.TID 0000.0001) ======== Tile bi=   6 , bj=  13 ========
(PID.TID 0000.0001)  OB_Jn = /* Northern OB local indices */
(PID.TID 0000.0001)    22 @      -99                            /* I = -2: 19 */
(PID.TID 0000.0001)  OB_Js = /* Southern OB local indices */
(PID.TID 0000.0001)    22 @      -99                            /* I = -2: 19 */
(PID.TID 0000.0001)  OB_Ie = /* Eastern OB local indices */
(PID.TID 0000.0001)    18 @      -99                            /* J = -2: 15 */
(PID.TID 0000.0001)  OB_Iw = /* Western OB local indices */
(PID.TID 0000.0001)    18 @      -99                            /* J = -2: 15 */
(PID.TID 0000.0001) ======== Tile bi=   7 , bj=  13 ========
(PID.TID 0000.0001)  OB_Jn = /* Northern OB local indices */
(PID.TID 0000.0001)    22 @      -99                            /* I = -2: 19 */
(PID.TID 0000.0001)  OB_Js = /* Southern OB local indices */
(PID.TID 0000.0001)    22 @      -99                            /* I = -2: 19 */
(PID.TID 0000.0001)  OB_Ie = /* Eastern OB local indices */
(PID.TID 0000.0001)    18 @      -99                            /* J = -2: 15 */
(PID.TID 0000.0001)  OB_Iw = /* Western OB local indices */
(PID.TID 0000.0001)    18 @      -99                            /* J = -2: 15 */
(PID.TID 0000.0001) ======== Tile bi=   8 , bj=  13 ========
(PID.TID 0000.0001)  OB_Jn = /* Northern OB local indices */
(PID.TID 0000.0001)    22 @      -99                            /* I = -2: 19 */
(PID.TID 0000.0001)  OB_Js = /* Southern OB local indices */
(PID.TID 0000.0001)    22 @      -99                            /* I = -2: 19 */
(PID.TID 0000.0001)  OB_Ie = /* Eastern OB local indices */
(PID.TID 0000.0001)    18 @      -99                            /* J = -2: 15 */
(PID.TID 0000.0001)  OB_Iw = /* Western OB local indices */
(PID.TID 0000.0001)    18 @      -99                            /* J = -2: 15 */
(PID.TID 0000.0001) ======== Tile bi=   9 , bj=  13 ========
(PID.TID 0000.0001)  OB_Jn = /* Northern OB local indices */
(PID.TID 0000.0001)    22 @      -99                            /* I = -2: 19 */
(PID.TID 0000.0001)  OB_Js = /* Southern OB local indices */
(PID.TID 0000.0001)    22 @      -99                            /* I = -2: 19 */
(PID.TID 0000.0001)  OB_Ie = /* Eastern OB local indices */
(PID.TID 0000.0001)    18 @      -99                            /* J = -2: 15 */
(PID.TID 0000.0001)  OB_Iw = /* Western OB local indices */
(PID.TID 0000.0001)    18 @      -99                            /* J = -2: 15 */
(PID.TID 0000.0001) ======== Tile bi=  10 , bj=  13 ========
(PID.TID 0000.0001)  OB_Jn = /* Northern OB local indices */
(PID.TID 0000.0001)    22 @      -99                            /* I = -2: 19 */
(PID.TID 0000.0001)  OB_Js = /* Southern OB local indices */
(PID.TID 0000.0001)    22 @      -99                            /* I = -2: 19 */
(PID.TID 0000.0001)  OB_Ie = /* Eastern OB local indices */
(PID.TID 0000.0001)    18 @      -99                            /* J = -2: 15 */
(PID.TID 0000.0001)  OB_Iw = /* Western OB local indices */
(PID.TID 0000.0001)    18 @      -99                            /* J = -2: 15 */
(PID.TID 0000.0001) ======== Tile bi=  11 , bj=  13 ========
(PID.TID 0000.0001)  OB_Jn = /* Northern OB local indices */
(PID.TID 0000.0001)    22 @      -99                            /* I = -2: 19 */
(PID.TID 0000.0001)  OB_Js = /* Southern OB local indices */
(PID.TID 0000.0001)    22 @      -99                            /* I = -2: 19 */
(PID.TID 0000.0001)  OB_Ie = /* Eastern OB local indices */
(PID.TID 0000.0001)    18 @      -99                            /* J = -2: 15 */
(PID.TID 0000.0001)  OB_Iw = /* Western OB local indices */
(PID.TID 0000.0001)    18 @      -99                            /* J = -2: 15 */
(PID.TID 0000.0001) ======== Tile bi=  12 , bj=  13 ========
(PID.TID 0000.0001)  OB_Jn = /* Northern OB local indices */
(PID.TID 0000.0001)    22 @      -99                            /* I = -2: 19 */
(PID.TID 0000.0001)  OB_Js = /* Southern OB local indices */
(PID.TID 0000.0001)    22 @      -99                            /* I = -2: 19 */
(PID.TID 0000.0001)  OB_Ie = /* Eastern OB local indices */
(PID.TID 0000.0001)    18 @      -99                            /* J = -2: 15 */
(PID.TID 0000.0001)  OB_Iw = /* Western OB local indices */
(PID.TID 0000.0001)    18 @      -99                            /* J = -2: 15 */
(PID.TID 0000.0001) ======== Tile bi=  13 , bj=  13 ========
(PID.TID 0000.0001)  OB_Jn = /* Northern OB local indices */
(PID.TID 0000.0001)    22 @      -99                            /* I = -2: 19 */
(PID.TID 0000.0001)  OB_Js = /* Southern OB local indices */
(PID.TID 0000.0001)    22 @      -99                            /* I = -2: 19 */
(PID.TID 0000.0001)  OB_Ie = /* Eastern OB local indices */
(PID.TID 0000.0001)    18 @      -99                            /* J = -2: 15 */
(PID.TID 0000.0001)  OB_Iw = /* Western OB local indices */
(PID.TID 0000.0001)    18 @      -99                            /* J = -2: 15 */
(PID.TID 0000.0001) ======== Tile bi=  14 , bj=  13 ========
(PID.TID 0000.0001)  OB_Jn = /* Northern OB local indices */
(PID.TID 0000.0001)    22 @      -99                            /* I = -2: 19 */
(PID.TID 0000.0001)  OB_Js = /* Southern OB local indices */
(PID.TID 0000.0001)    22 @      -99                            /* I = -2: 19 */
(PID.TID 0000.0001)  OB_Ie = /* Eastern OB local indices */
(PID.TID 0000.0001)    18 @      -99                            /* J = -2: 15 */
(PID.TID 0000.0001)  OB_Iw = /* Western OB local indices */
(PID.TID 0000.0001)    18 @      -99                            /* J = -2: 15 */
(PID.TID 0000.0001) ======== Tile bi=  15 , bj=  13 ========
(PID.TID 0000.0001)  OB_Jn = /* Northern OB local indices */
(PID.TID 0000.0001)    22 @      -99                            /* I = -2: 19 */
(PID.TID 0000.0001)  OB_Js = /* Southern OB local indices */
(PID.TID 0000.0001)    22 @      -99                            /* I = -2: 19 */
(PID.TID 0000.0001)  OB_Ie = /* Eastern OB local indices */
(PID.TID 0000.0001)    18 @      -99                            /* J = -2: 15 */
(PID.TID 0000.0001)  OB_Iw = /* Western OB local indices */
(PID.TID 0000.0001)    18 @      -99                            /* J = -2: 15 */
(PID.TID 0000.0001) ======== Tile bi=   1 , bj=  14 ========
(PID.TID 0000.0001)  OB_Jn = /* Northern OB local indices */
(PID.TID 0000.0001)    22 @      -99                            /* I = -2: 19 */
(PID.TID 0000.0001)  OB_Js = /* Southern OB local indices */
(PID.TID 0000.0001)    22 @      -99                            /* I = -2: 19 */
(PID.TID 0000.0001)  OB_Ie = /* Eastern OB local indices */
(PID.TID 0000.0001)    18 @      -99                            /* J = -2: 15 */
(PID.TID 0000.0001)  OB_Iw = /* Western OB local indices */
(PID.TID 0000.0001)    18 @      -99                            /* J = -2: 15 */
(PID.TID 0000.0001) ======== Tile bi=   2 , bj=  14 ========
(PID.TID 0000.0001)  OB_Jn = /* Northern OB local indices */
(PID.TID 0000.0001)    22 @      -99                            /* I = -2: 19 */
(PID.TID 0000.0001)  OB_Js = /* Southern OB local indices */
(PID.TID 0000.0001)    22 @      -99                            /* I = -2: 19 */
(PID.TID 0000.0001)  OB_Ie = /* Eastern OB local indices */
(PID.TID 0000.0001)    18 @      -99                            /* J = -2: 15 */
(PID.TID 0000.0001)  OB_Iw = /* Western OB local indices */
(PID.TID 0000.0001)    18 @      -99                            /* J = -2: 15 */
(PID.TID 0000.0001) ======== Tile bi=   3 , bj=  14 ========
(PID.TID 0000.0001)  OB_Jn = /* Northern OB local indices */
(PID.TID 0000.0001)    22 @      -99                            /* I = -2: 19 */
(PID.TID 0000.0001)  OB_Js = /* Southern OB local indices */
(PID.TID 0000.0001)    22 @      -99                            /* I = -2: 19 */
(PID.TID 0000.0001)  OB_Ie = /* Eastern OB local indices */
(PID.TID 0000.0001)    18 @      -99                            /* J = -2: 15 */
(PID.TID 0000.0001)  OB_Iw = /* Western OB local indices */
(PID.TID 0000.0001)    18 @      -99                            /* J = -2: 15 */
(PID.TID 0000.0001) ======== Tile bi=   4 , bj=  14 ========
(PID.TID 0000.0001)  OB_Jn = /* Northern OB local indices */
(PID.TID 0000.0001)    22 @      -99                            /* I = -2: 19 */
(PID.TID 0000.0001)  OB_Js = /* Southern OB local indices */
(PID.TID 0000.0001)    22 @      -99                            /* I = -2: 19 */
(PID.TID 0000.0001)  OB_Ie = /* Eastern OB local indices */
(PID.TID 0000.0001)    18 @      -99                            /* J = -2: 15 */
(PID.TID 0000.0001)  OB_Iw = /* Western OB local indices */
(PID.TID 0000.0001)    18 @      -99                            /* J = -2: 15 */
(PID.TID 0000.0001) ======== Tile bi=   5 , bj=  14 ========
(PID.TID 0000.0001)  OB_Jn = /* Northern OB local indices */
(PID.TID 0000.0001)    22 @      -99                            /* I = -2: 19 */
(PID.TID 0000.0001)  OB_Js = /* Southern OB local indices */
(PID.TID 0000.0001)    22 @      -99                            /* I = -2: 19 */
(PID.TID 0000.0001)  OB_Ie = /* Eastern OB local indices */
(PID.TID 0000.0001)    18 @      -99                            /* J = -2: 15 */
(PID.TID 0000.0001)  OB_Iw = /* Western OB local indices */
(PID.TID 0000.0001)    18 @      -99                            /* J = -2: 15 */
(PID.TID 0000.0001) ======== Tile bi=   6 , bj=  14 ========
(PID.TID 0000.0001)  OB_Jn = /* Northern OB local indices */
(PID.TID 0000.0001)    22 @      -99                            /* I = -2: 19 */
(PID.TID 0000.0001)  OB_Js = /* Southern OB local indices */
(PID.TID 0000.0001)    22 @      -99                            /* I = -2: 19 */
(PID.TID 0000.0001)  OB_Ie = /* Eastern OB local indices */
(PID.TID 0000.0001)    18 @      -99                            /* J = -2: 15 */
(PID.TID 0000.0001)  OB_Iw = /* Western OB local indices */
(PID.TID 0000.0001)    18 @      -99                            /* J = -2: 15 */
(PID.TID 0000.0001) ======== Tile bi=   7 , bj=  14 ========
(PID.TID 0000.0001)  OB_Jn = /* Northern OB local indices */
(PID.TID 0000.0001)    22 @      -99                            /* I = -2: 19 */
(PID.TID 0000.0001)  OB_Js = /* Southern OB local indices */
(PID.TID 0000.0001)    22 @      -99                            /* I = -2: 19 */
(PID.TID 0000.0001)  OB_Ie = /* Eastern OB local indices */
(PID.TID 0000.0001)    18 @      -99                            /* J = -2: 15 */
(PID.TID 0000.0001)  OB_Iw = /* Western OB local indices */
(PID.TID 0000.0001)    18 @      -99                            /* J = -2: 15 */
(PID.TID 0000.0001) ======== Tile bi=   8 , bj=  14 ========
(PID.TID 0000.0001)  OB_Jn = /* Northern OB local indices */
(PID.TID 0000.0001)    22 @      -99                            /* I = -2: 19 */
(PID.TID 0000.0001)  OB_Js = /* Southern OB local indices */
(PID.TID 0000.0001)    22 @      -99                            /* I = -2: 19 */
(PID.TID 0000.0001)  OB_Ie = /* Eastern OB local indices */
(PID.TID 0000.0001)    18 @      -99                            /* J = -2: 15 */
(PID.TID 0000.0001)  OB_Iw = /* Western OB local indices */
(PID.TID 0000.0001)    18 @      -99                            /* J = -2: 15 */
(PID.TID 0000.0001) ======== Tile bi=   9 , bj=  14 ========
(PID.TID 0000.0001)  OB_Jn = /* Northern OB local indices */
(PID.TID 0000.0001)    22 @      -99                            /* I = -2: 19 */
(PID.TID 0000.0001)  OB_Js = /* Southern OB local indices */
(PID.TID 0000.0001)    22 @      -99                            /* I = -2: 19 */
(PID.TID 0000.0001)  OB_Ie = /* Eastern OB local indices */
(PID.TID 0000.0001)    18 @      -99                            /* J = -2: 15 */
(PID.TID 0000.0001)  OB_Iw = /* Western OB local indices */
(PID.TID 0000.0001)    18 @      -99                            /* J = -2: 15 */
(PID.TID 0000.0001) ======== Tile bi=  10 , bj=  14 ========
(PID.TID 0000.0001)  OB_Jn = /* Northern OB local indices */
(PID.TID 0000.0001)    22 @      -99                            /* I = -2: 19 */
(PID.TID 0000.0001)  OB_Js = /* Southern OB local indices */
(PID.TID 0000.0001)    22 @      -99                            /* I = -2: 19 */
(PID.TID 0000.0001)  OB_Ie = /* Eastern OB local indices */
(PID.TID 0000.0001)    18 @      -99                            /* J = -2: 15 */
(PID.TID 0000.0001)  OB_Iw = /* Western OB local indices */
(PID.TID 0000.0001)    18 @      -99                            /* J = -2: 15 */
(PID.TID 0000.0001) ======== Tile bi=  11 , bj=  14 ========
(PID.TID 0000.0001)  OB_Jn = /* Northern OB local indices */
(PID.TID 0000.0001)    22 @      -99                            /* I = -2: 19 */
(PID.TID 0000.0001)  OB_Js = /* Southern OB local indices */
(PID.TID 0000.0001)    22 @      -99                            /* I = -2: 19 */
(PID.TID 0000.0001)  OB_Ie = /* Eastern OB local indices */
(PID.TID 0000.0001)    18 @      -99                            /* J = -2: 15 */
(PID.TID 0000.0001)  OB_Iw = /* Western OB local indices */
(PID.TID 0000.0001)    18 @      -99                            /* J = -2: 15 */
(PID.TID 0000.0001) ======== Tile bi=  12 , bj=  14 ========
(PID.TID 0000.0001)  OB_Jn = /* Northern OB local indices */
(PID.TID 0000.0001)    22 @      -99                            /* I = -2: 19 */
(PID.TID 0000.0001)  OB_Js = /* Southern OB local indices */
(PID.TID 0000.0001)    22 @      -99                            /* I = -2: 19 */
(PID.TID 0000.0001)  OB_Ie = /* Eastern OB local indices */
(PID.TID 0000.0001)    18 @      -99                            /* J = -2: 15 */
(PID.TID 0000.0001)  OB_Iw = /* Western OB local indices */
(PID.TID 0000.0001)    18 @      -99                            /* J = -2: 15 */
(PID.TID 0000.0001) ======== Tile bi=  13 , bj=  14 ========
(PID.TID 0000.0001)  OB_Jn = /* Northern OB local indices */
(PID.TID 0000.0001)    22 @      -99                            /* I = -2: 19 */
(PID.TID 0000.0001)  OB_Js = /* Southern OB local indices */
(PID.TID 0000.0001)    22 @      -99                            /* I = -2: 19 */
(PID.TID 0000.0001)  OB_Ie = /* Eastern OB local indices */
(PID.TID 0000.0001)    18 @      -99                            /* J = -2: 15 */
(PID.TID 0000.0001)  OB_Iw = /* Western OB local indices */
(PID.TID 0000.0001)    18 @      -99                            /* J = -2: 15 */
(PID.TID 0000.0001) ======== Tile bi=  14 , bj=  14 ========
(PID.TID 0000.0001)  OB_Jn = /* Northern OB local indices */
(PID.TID 0000.0001)    22 @      -99                            /* I = -2: 19 */
(PID.TID 0000.0001)  OB_Js = /* Southern OB local indices */
(PID.TID 0000.0001)    22 @      -99                            /* I = -2: 19 */
(PID.TID 0000.0001)  OB_Ie = /* Eastern OB local indices */
(PID.TID 0000.0001)    18 @      -99                            /* J = -2: 15 */
(PID.TID 0000.0001)  OB_Iw = /* Western OB local indices */
(PID.TID 0000.0001)    18 @      -99                            /* J = -2: 15 */
(PID.TID 0000.0001) ======== Tile bi=  15 , bj=  14 ========
(PID.TID 0000.0001)  OB_Jn = /* Northern OB local indices */
(PID.TID 0000.0001)    22 @      -99                            /* I = -2: 19 */
(PID.TID 0000.0001)  OB_Js = /* Southern OB local indices */
(PID.TID 0000.0001)    22 @      -99                            /* I = -2: 19 */
(PID.TID 0000.0001)  OB_Ie = /* Eastern OB local indices */
(PID.TID 0000.0001)    18 @      -99                            /* J = -2: 15 */
(PID.TID 0000.0001)  OB_Iw = /* Western OB local indices */
(PID.TID 0000.0001)    18 @      -99                            /* J = -2: 15 */
(PID.TID 0000.0001) ======== Tile bi=   1 , bj=  15 ========
(PID.TID 0000.0001)  OB_Jn = /* Northern OB local indices */
(PID.TID 0000.0001)    22 @      -99                            /* I = -2: 19 */
(PID.TID 0000.0001)  OB_Js = /* Southern OB local indices */
(PID.TID 0000.0001)    22 @      -99                            /* I = -2: 19 */
(PID.TID 0000.0001)  OB_Ie = /* Eastern OB local indices */
(PID.TID 0000.0001)    18 @      -99                            /* J = -2: 15 */
(PID.TID 0000.0001)  OB_Iw = /* Western OB local indices */
(PID.TID 0000.0001)    18 @      -99                            /* J = -2: 15 */
(PID.TID 0000.0001) ======== Tile bi=   2 , bj=  15 ========
(PID.TID 0000.0001)  OB_Jn = /* Northern OB local indices */
(PID.TID 0000.0001)    22 @      -99                            /* I = -2: 19 */
(PID.TID 0000.0001)  OB_Js = /* Southern OB local indices */
(PID.TID 0000.0001)    22 @      -99                            /* I = -2: 19 */
(PID.TID 0000.0001)  OB_Ie = /* Eastern OB local indices */
(PID.TID 0000.0001)    18 @      -99                            /* J = -2: 15 */
(PID.TID 0000.0001)  OB_Iw = /* Western OB local indices */
(PID.TID 0000.0001)    18 @      -99                            /* J = -2: 15 */
(PID.TID 0000.0001) ======== Tile bi=   3 , bj=  15 ========
(PID.TID 0000.0001)  OB_Jn = /* Northern OB local indices */
(PID.TID 0000.0001)    22 @      -99                            /* I = -2: 19 */
(PID.TID 0000.0001)  OB_Js = /* Southern OB local indices */
(PID.TID 0000.0001)    22 @      -99                            /* I = -2: 19 */
(PID.TID 0000.0001)  OB_Ie = /* Eastern OB local indices */
(PID.TID 0000.0001)    18 @      -99                            /* J = -2: 15 */
(PID.TID 0000.0001)  OB_Iw = /* Western OB local indices */
(PID.TID 0000.0001)    18 @      -99                            /* J = -2: 15 */
(PID.TID 0000.0001) ======== Tile bi=   4 , bj=  15 ========
(PID.TID 0000.0001)  OB_Jn = /* Northern OB local indices */
(PID.TID 0000.0001)    22 @      -99                            /* I = -2: 19 */
(PID.TID 0000.0001)  OB_Js = /* Southern OB local indices */
(PID.TID 0000.0001)    22 @      -99                            /* I = -2: 19 */
(PID.TID 0000.0001)  OB_Ie = /* Eastern OB local indices */
(PID.TID 0000.0001)    18 @      -99                            /* J = -2: 15 */
(PID.TID 0000.0001)  OB_Iw = /* Western OB local indices */
(PID.TID 0000.0001)    18 @      -99                            /* J = -2: 15 */
(PID.TID 0000.0001) ======== Tile bi=   5 , bj=  15 ========
(PID.TID 0000.0001)  OB_Jn = /* Northern OB local indices */
(PID.TID 0000.0001)    22 @      -99                            /* I = -2: 19 */
(PID.TID 0000.0001)  OB_Js = /* Southern OB local indices */
(PID.TID 0000.0001)    22 @      -99                            /* I = -2: 19 */
(PID.TID 0000.0001)  OB_Ie = /* Eastern OB local indices */
(PID.TID 0000.0001)    18 @      -99                            /* J = -2: 15 */
(PID.TID 0000.0001)  OB_Iw = /* Western OB local indices */
(PID.TID 0000.0001)    18 @      -99                            /* J = -2: 15 */
(PID.TID 0000.0001) ======== Tile bi=   6 , bj=  15 ========
(PID.TID 0000.0001)  OB_Jn = /* Northern OB local indices */
(PID.TID 0000.0001)    22 @      -99                            /* I = -2: 19 */
(PID.TID 0000.0001)  OB_Js = /* Southern OB local indices */
(PID.TID 0000.0001)    22 @      -99                            /* I = -2: 19 */
(PID.TID 0000.0001)  OB_Ie = /* Eastern OB local indices */
(PID.TID 0000.0001)    18 @      -99                            /* J = -2: 15 */
(PID.TID 0000.0001)  OB_Iw = /* Western OB local indices */
(PID.TID 0000.0001)    18 @      -99                            /* J = -2: 15 */
(PID.TID 0000.0001) ======== Tile bi=   7 , bj=  15 ========
(PID.TID 0000.0001)  OB_Jn = /* Northern OB local indices */
(PID.TID 0000.0001)    22 @      -99                            /* I = -2: 19 */
(PID.TID 0000.0001)  OB_Js = /* Southern OB local indices */
(PID.TID 0000.0001)    22 @      -99                            /* I = -2: 19 */
(PID.TID 0000.0001)  OB_Ie = /* Eastern OB local indices */
(PID.TID 0000.0001)    18 @      -99                            /* J = -2: 15 */
(PID.TID 0000.0001)  OB_Iw = /* Western OB local indices */
(PID.TID 0000.0001)    18 @      -99                            /* J = -2: 15 */
(PID.TID 0000.0001) ======== Tile bi=   8 , bj=  15 ========
(PID.TID 0000.0001)  OB_Jn = /* Northern OB local indices */
(PID.TID 0000.0001)    22 @      -99                            /* I = -2: 19 */
(PID.TID 0000.0001)  OB_Js = /* Southern OB local indices */
(PID.TID 0000.0001)    22 @      -99                            /* I = -2: 19 */
(PID.TID 0000.0001)  OB_Ie = /* Eastern OB local indices */
(PID.TID 0000.0001)    18 @      -99                            /* J = -2: 15 */
(PID.TID 0000.0001)  OB_Iw = /* Western OB local indices */
(PID.TID 0000.0001)    18 @      -99                            /* J = -2: 15 */
(PID.TID 0000.0001) ======== Tile bi=   9 , bj=  15 ========
(PID.TID 0000.0001)  OB_Jn = /* Northern OB local indices */
(PID.TID 0000.0001)    22 @      -99                            /* I = -2: 19 */
(PID.TID 0000.0001)  OB_Js = /* Southern OB local indices */
(PID.TID 0000.0001)    22 @      -99                            /* I = -2: 19 */
(PID.TID 0000.0001)  OB_Ie = /* Eastern OB local indices */
(PID.TID 0000.0001)    18 @      -99                            /* J = -2: 15 */
(PID.TID 0000.0001)  OB_Iw = /* Western OB local indices */
(PID.TID 0000.0001)    18 @      -99                            /* J = -2: 15 */
(PID.TID 0000.0001) ======== Tile bi=  10 , bj=  15 ========
(PID.TID 0000.0001)  OB_Jn = /* Northern OB local indices */
(PID.TID 0000.0001)    22 @      -99                            /* I = -2: 19 */
(PID.TID 0000.0001)  OB_Js = /* Southern OB local indices */
(PID.TID 0000.0001)    22 @      -99                            /* I = -2: 19 */
(PID.TID 0000.0001)  OB_Ie = /* Eastern OB local indices */
(PID.TID 0000.0001)    18 @      -99                            /* J = -2: 15 */
(PID.TID 0000.0001)  OB_Iw = /* Western OB local indices */
(PID.TID 0000.0001)    18 @      -99                            /* J = -2: 15 */
(PID.TID 0000.0001) ======== Tile bi=  11 , bj=  15 ========
(PID.TID 0000.0001)  OB_Jn = /* Northern OB local indices */
(PID.TID 0000.0001)    22 @      -99                            /* I = -2: 19 */
(PID.TID 0000.0001)  OB_Js = /* Southern OB local indices */
(PID.TID 0000.0001)    22 @      -99                            /* I = -2: 19 */
(PID.TID 0000.0001)  OB_Ie = /* Eastern OB local indices */
(PID.TID 0000.0001)    18 @      -99                            /* J = -2: 15 */
(PID.TID 0000.0001)  OB_Iw = /* Western OB local indices */
(PID.TID 0000.0001)    18 @      -99                            /* J = -2: 15 */
(PID.TID 0000.0001) ======== Tile bi=  12 , bj=  15 ========
(PID.TID 0000.0001)  OB_Jn = /* Northern OB local indices */
(PID.TID 0000.0001)    22 @      -99                            /* I = -2: 19 */
(PID.TID 0000.0001)  OB_Js = /* Southern OB local indices */
(PID.TID 0000.0001)    22 @      -99                            /* I = -2: 19 */
(PID.TID 0000.0001)  OB_Ie = /* Eastern OB local indices */
(PID.TID 0000.0001)    18 @      -99                            /* J = -2: 15 */
(PID.TID 0000.0001)  OB_Iw = /* Western OB local indices */
(PID.TID 0000.0001)    18 @      -99                            /* J = -2: 15 */
(PID.TID 0000.0001) ======== Tile bi=  13 , bj=  15 ========
(PID.TID 0000.0001)  OB_Jn = /* Northern OB local indices */
(PID.TID 0000.0001)    22 @      -99                            /* I = -2: 19 */
(PID.TID 0000.0001)  OB_Js = /* Southern OB local indices */
(PID.TID 0000.0001)    22 @      -99                            /* I = -2: 19 */
(PID.TID 0000.0001)  OB_Ie = /* Eastern OB local indices */
(PID.TID 0000.0001)    18 @      -99                            /* J = -2: 15 */
(PID.TID 0000.0001)  OB_Iw = /* Western OB local indices */
(PID.TID 0000.0001)    18 @      -99                            /* J = -2: 15 */
(PID.TID 0000.0001) ======== Tile bi=  14 , bj=  15 ========
(PID.TID 0000.0001)  OB_Jn = /* Northern OB local indices */
(PID.TID 0000.0001)    22 @      -99                            /* I = -2: 19 */
(PID.TID 0000.0001)  OB_Js = /* Southern OB local indices */
(PID.TID 0000.0001)    22 @      -99                            /* I = -2: 19 */
(PID.TID 0000.0001)  OB_Ie = /* Eastern OB local indices */
(PID.TID 0000.0001)    18 @      -99                            /* J = -2: 15 */
(PID.TID 0000.0001)  OB_Iw = /* Western OB local indices */
(PID.TID 0000.0001)    18 @      -99                            /* J = -2: 15 */
(PID.TID 0000.0001) ======== Tile bi=  15 , bj=  15 ========
(PID.TID 0000.0001)  OB_Jn = /* Northern OB local indices */
(PID.TID 0000.0001)    22 @      -99                            /* I = -2: 19 */
(PID.TID 0000.0001)  OB_Js = /* Southern OB local indices */
(PID.TID 0000.0001)    22 @      -99                            /* I = -2: 19 */
(PID.TID 0000.0001)  OB_Ie = /* Eastern OB local indices */
(PID.TID 0000.0001)    18 @      -99                            /* J = -2: 15 */
(PID.TID 0000.0001)  OB_Iw = /* Western OB local indices */
(PID.TID 0000.0001)    18 @      -99                            /* J = -2: 15 */
(PID.TID 0000.0001) // =======================================================
(PID.TID 0000.0001) // End of OBCS config. summary
(PID.TID 0000.0001) // =======================================================
(PID.TID 0000.0001) 
(PID.TID 0000.0001) OBCS_CHECK: #define ALLOW_ORLANSKI
(PID.TID 0000.0001) OBCS_CHECK: set-up OK
(PID.TID 0000.0001) OBCS_CHECK: check Inside Mask and OB locations: OK
(PID.TID 0000.0001) 
(PID.TID 0000.0001) GAD_CHECK: #define ALLOW_GENERIC_ADVDIFF
(PID.TID 0000.0001) // =======================================================
(PID.TID 0000.0001) // Check Model config. (CONFIG_CHECK):
(PID.TID 0000.0001) // CONFIG_CHECK : Normal End
(PID.TID 0000.0001) // =======================================================
(PID.TID 0000.0001) 
(PID.TID 0000.0001)  MDS_READ_META: opening file: pickup.ckptA.meta
(PID.TID 0000.0001)  nRecords = 323 ; filePrec =  64 ; fileIter =       720
(PID.TID 0000.0001)     nDims =   2 , dims:
(PID.TID 0000.0001)    1: 240   1 240
(PID.TID 0000.0001)    2: 180   1 180
(PID.TID 0000.0001)     nFlds =  11 , nFl3D =   8 , fields:
(PID.TID 0000.0001)  >Uvel    < >Vvel    < >Theta   < >Salt    < >GuNm1   < >GvNm1   < >GtNm1   < >GsNm1   < >EtaN    < >dEtaHdt < >EtaH    <
(PID.TID 0000.0001) missingVal=  1.00000000000000E+00 ; nTimRec =   1 , timeList:
(PID.TID 0000.0001)   4.320000000000E+04
(PID.TID 0000.0001) READ_MFLDS_3D_RL: read field: "Uvel    ", #   1 in fldList, rec=   1
(PID.TID 0000.0001)  MDS_READ_FIELD: opening global file: pickup.ckptA.data
(PID.TID 0000.0001) READ_MFLDS_3D_RL: read field: "Vvel    ", #   2 in fldList, rec=   2
(PID.TID 0000.0001)  MDS_READ_FIELD: opening global file: pickup.ckptA.data
(PID.TID 0000.0001) READ_MFLDS_3D_RL: read field: "Theta   ", #   3 in fldList, rec=   3
(PID.TID 0000.0001)  MDS_READ_FIELD: opening global file: pickup.ckptA.data
(PID.TID 0000.0001) READ_MFLDS_3D_RL: read field: "Salt    ", #   4 in fldList, rec=   4
(PID.TID 0000.0001)  MDS_READ_FIELD: opening global file: pickup.ckptA.data
(PID.TID 0000.0001) READ_MFLDS_3D_RL: read field: "GuNm1   ", #   5 in fldList, rec=   5
(PID.TID 0000.0001)  MDS_READ_FIELD: opening global file: pickup.ckptA.data
(PID.TID 0000.0001) READ_MFLDS_3D_RL: read field: "GvNm1   ", #   6 in fldList, rec=   6
(PID.TID 0000.0001)  MDS_READ_FIELD: opening global file: pickup.ckptA.data
(PID.TID 0000.0001) READ_MFLDS_3D_RL: read field: "GtNm1   ", #   7 in fldList, rec=   7
(PID.TID 0000.0001)  MDS_READ_FIELD: opening global file: pickup.ckptA.data
(PID.TID 0000.0001) READ_MFLDS_3D_RL: read field: "GsNm1   ", #   8 in fldList, rec=   8
(PID.TID 0000.0001)  MDS_READ_FIELD: opening global file: pickup.ckptA.data
(PID.TID 0000.0001) READ_MFLDS_3D_RL: read field: "EtaN    ", #   9 in fldList, rec= 321
(PID.TID 0000.0001)  MDS_READ_FIELD: opening global file: pickup.ckptA.data
(PID.TID 0000.0001) READ_MFLDS_3D_RL: read field: "dEtaHdt ", #  10 in fldList, rec= 322
(PID.TID 0000.0001)  MDS_READ_FIELD: opening global file: pickup.ckptA.data
(PID.TID 0000.0001) READ_MFLDS_CHECK: - normal end ; reset MFLDS file-name: pickup.ckptA
(PID.TID 0000.0001)  MDS_READ_SEC_XZ: opening file: pickup_orlanskiS.ckptA.001.001.data
(PID.TID 0000.0001)  MDS_READ_SEC_XZ: opening file: pickup_orlanskiS.ckptA.002.001.data
(PID.TID 0000.0001)  MDS_READ_SEC_XZ: opening file: pickup_orlanskiS.ckptA.003.001.data
(PID.TID 0000.0001)  MDS_READ_SEC_XZ: opening file: pickup_orlanskiS.ckptA.004.001.data
(PID.TID 0000.0001)  MDS_READ_SEC_XZ: opening file: pickup_orlanskiS.ckptA.005.001.data
(PID.TID 0000.0001)  MDS_READ_SEC_XZ: opening file: pickup_orlanskiS.ckptA.006.001.data
(PID.TID 0000.0001)  MDS_READ_SEC_XZ: opening file: pickup_orlanskiS.ckptA.007.001.data
(PID.TID 0000.0001)  MDS_READ_SEC_XZ: opening file: pickup_orlanskiS.ckptA.008.001.data
(PID.TID 0000.0001)  MDS_READ_SEC_XZ: opening file: pickup_orlanskiS.ckptA.009.001.data
(PID.TID 0000.0001)  MDS_READ_SEC_XZ: opening file: pickup_orlanskiS.ckptA.010.001.data
(PID.TID 0000.0001)  MDS_READ_SEC_XZ: opening file: pickup_orlanskiS.ckptA.011.001.data
(PID.TID 0000.0001)  MDS_READ_SEC_XZ: opening file: pickup_orlanskiS.ckptA.012.001.data
(PID.TID 0000.0001)  MDS_READ_SEC_XZ: opening file: pickup_orlanskiS.ckptA.013.001.data
(PID.TID 0000.0001)  MDS_READ_SEC_XZ: opening file: pickup_orlanskiS.ckptA.014.001.data
(PID.TID 0000.0001)  MDS_READ_SEC_XZ: opening file: pickup_orlanskiS.ckptA.015.001.data
(PID.TID 0000.0001)  MDS_READ_SEC_XZ: opening file: pickup_orlanskiS.ckptA.001.002.data
(PID.TID 0000.0001)  MDS_READ_SEC_XZ: opening file: pickup_orlanskiS.ckptA.002.002.data
(PID.TID 0000.0001)  MDS_READ_SEC_XZ: opening file: pickup_orlanskiS.ckptA.003.002.data
(PID.TID 0000.0001)  MDS_READ_SEC_XZ: opening file: pickup_orlanskiS.ckptA.004.002.data
(PID.TID 0000.0001)  MDS_READ_SEC_XZ: opening file: pickup_orlanskiS.ckptA.005.002.data
(PID.TID 0000.0001)  MDS_READ_SEC_XZ: opening file: pickup_orlanskiS.ckptA.006.002.data
(PID.TID 0000.0001)  MDS_READ_SEC_XZ: opening file: pickup_orlanskiS.ckptA.007.002.data
(PID.TID 0000.0001)  MDS_READ_SEC_XZ: opening file: pickup_orlanskiS.ckptA.008.002.data
(PID.TID 0000.0001)  MDS_READ_SEC_XZ: opening file: pickup_orlanskiS.ckptA.009.002.data
(PID.TID 0000.0001)  MDS_READ_SEC_XZ: opening file: pickup_orlanskiS.ckptA.010.002.data
(PID.TID 0000.0001)  MDS_READ_SEC_XZ: opening file: pickup_orlanskiS.ckptA.011.002.data
(PID.TID 0000.0001)  MDS_READ_SEC_XZ: opening file: pickup_orlanskiS.ckptA.012.002.data
(PID.TID 0000.0001)  MDS_READ_SEC_XZ: opening file: pickup_orlanskiS.ckptA.013.002.data
(PID.TID 0000.0001)  MDS_READ_SEC_XZ: opening file: pickup_orlanskiS.ckptA.014.002.data
(PID.TID 0000.0001)  MDS_READ_SEC_XZ: opening file: pickup_orlanskiS.ckptA.015.002.data
(PID.TID 0000.0001)  MDS_READ_SEC_XZ: opening file: pickup_orlanskiS.ckptA.001.003.data
(PID.TID 0000.0001)  MDS_READ_SEC_XZ: opening file: pickup_orlanskiS.ckptA.002.003.data
(PID.TID 0000.0001)  MDS_READ_SEC_XZ: opening file: pickup_orlanskiS.ckptA.003.003.data
(PID.TID 0000.0001)  MDS_READ_SEC_XZ: opening file: pickup_orlanskiS.ckptA.004.003.data
(PID.TID 0000.0001)  MDS_READ_SEC_XZ: opening file: pickup_orlanskiS.ckptA.005.003.data
(PID.TID 0000.0001)  MDS_READ_SEC_XZ: opening file: pickup_orlanskiS.ckptA.006.003.data
(PID.TID 0000.0001)  MDS_READ_SEC_XZ: opening file: pickup_orlanskiS.ckptA.007.003.data
(PID.TID 0000.0001)  MDS_READ_SEC_XZ: opening file: pickup_orlanskiS.ckptA.008.003.data
(PID.TID 0000.0001)  MDS_READ_SEC_XZ: opening file: pickup_orlanskiS.ckptA.009.003.data
(PID.TID 0000.0001)  MDS_READ_SEC_XZ: opening file: pickup_orlanskiS.ckptA.010.003.data
(PID.TID 0000.0001)  MDS_READ_SEC_XZ: opening file: pickup_orlanskiS.ckptA.011.003.data
(PID.TID 0000.0001)  MDS_READ_SEC_XZ: opening file: pickup_orlanskiS.ckptA.012.003.data
(PID.TID 0000.0001)  MDS_READ_SEC_XZ: opening file: pickup_orlanskiS.ckptA.013.003.data
(PID.TID 0000.0001)  MDS_READ_SEC_XZ: opening file: pickup_orlanskiS.ckptA.014.003.data
(PID.TID 0000.0001)  MDS_READ_SEC_XZ: opening file: pickup_orlanskiS.ckptA.015.003.data
(PID.TID 0000.0001)  MDS_READ_SEC_XZ: opening file: pickup_orlanskiS.ckptA.001.004.data
(PID.TID 0000.0001)  MDS_READ_SEC_XZ: opening file: pickup_orlanskiS.ckptA.002.004.data
(PID.TID 0000.0001)  MDS_READ_SEC_XZ: opening file: pickup_orlanskiS.ckptA.003.004.data
(PID.TID 0000.0001)  MDS_READ_SEC_XZ: opening file: pickup_orlanskiS.ckptA.004.004.data
(PID.TID 0000.0001)  MDS_READ_SEC_XZ: opening file: pickup_orlanskiS.ckptA.005.004.data
(PID.TID 0000.0001)  MDS_READ_SEC_XZ: opening file: pickup_orlanskiS.ckptA.006.004.data
(PID.TID 0000.0001)  MDS_READ_SEC_XZ: opening file: pickup_orlanskiS.ckptA.007.004.data
(PID.TID 0000.0001)  MDS_READ_SEC_XZ: opening file: pickup_orlanskiS.ckptA.008.004.data
(PID.TID 0000.0001)  MDS_READ_SEC_XZ: opening file: pickup_orlanskiS.ckptA.009.004.data
(PID.TID 0000.0001)  MDS_READ_SEC_XZ: opening file: pickup_orlanskiS.ckptA.010.004.data
(PID.TID 0000.0001)  MDS_READ_SEC_XZ: opening file: pickup_orlanskiS.ckptA.011.004.data
(PID.TID 0000.0001)  MDS_READ_SEC_XZ: opening file: pickup_orlanskiS.ckptA.012.004.data
(PID.TID 0000.0001)  MDS_READ_SEC_XZ: opening file: pickup_orlanskiS.ckptA.013.004.data
(PID.TID 0000.0001)  MDS_READ_SEC_XZ: opening file: pickup_orlanskiS.ckptA.014.004.data
(PID.TID 0000.0001)  MDS_READ_SEC_XZ: opening file: pickup_orlanskiS.ckptA.015.004.data
(PID.TID 0000.0001)  MDS_READ_SEC_XZ: opening file: pickup_orlanskiS.ckptA.001.005.data
(PID.TID 0000.0001)  MDS_READ_SEC_XZ: opening file: pickup_orlanskiS.ckptA.002.005.data
(PID.TID 0000.0001)  MDS_READ_SEC_XZ: opening file: pickup_orlanskiS.ckptA.003.005.data
(PID.TID 0000.0001)  MDS_READ_SEC_XZ: opening file: pickup_orlanskiS.ckptA.004.005.data
(PID.TID 0000.0001)  MDS_READ_SEC_XZ: opening file: pickup_orlanskiS.ckptA.005.005.data
(PID.TID 0000.0001)  MDS_READ_SEC_XZ: opening file: pickup_orlanskiS.ckptA.006.005.data
(PID.TID 0000.0001)  MDS_READ_SEC_XZ: opening file: pickup_orlanskiS.ckptA.007.005.data
(PID.TID 0000.0001)  MDS_READ_SEC_XZ: opening file: pickup_orlanskiS.ckptA.008.005.data
(PID.TID 0000.0001)  MDS_READ_SEC_XZ: opening file: pickup_orlanskiS.ckptA.009.005.data
(PID.TID 0000.0001)  MDS_READ_SEC_XZ: opening file: pickup_orlanskiS.ckptA.010.005.data
(PID.TID 0000.0001)  MDS_READ_SEC_XZ: opening file: pickup_orlanskiS.ckptA.011.005.data
(PID.TID 0000.0001)  MDS_READ_SEC_XZ: opening file: pickup_orlanskiS.ckptA.012.005.data
(PID.TID 0000.0001)  MDS_READ_SEC_XZ: opening file: pickup_orlanskiS.ckptA.013.005.data
(PID.TID 0000.0001)  MDS_READ_SEC_XZ: opening file: pickup_orlanskiS.ckptA.014.005.data
(PID.TID 0000.0001)  MDS_READ_SEC_XZ: opening file: pickup_orlanskiS.ckptA.015.005.data
(PID.TID 0000.0001)  MDS_READ_SEC_XZ: opening file: pickup_orlanskiS.ckptA.001.006.data
(PID.TID 0000.0001)  MDS_READ_SEC_XZ: opening file: pickup_orlanskiS.ckptA.002.006.data
(PID.TID 0000.0001)  MDS_READ_SEC_XZ: opening file: pickup_orlanskiS.ckptA.003.006.data
(PID.TID 0000.0001)  MDS_READ_SEC_XZ: opening file: pickup_orlanskiS.ckptA.004.006.data
(PID.TID 0000.0001)  MDS_READ_SEC_XZ: opening file: pickup_orlanskiS.ckptA.005.006.data
(PID.TID 0000.0001)  MDS_READ_SEC_XZ: opening file: pickup_orlanskiS.ckptA.006.006.data
(PID.TID 0000.0001)  MDS_READ_SEC_XZ: opening file: pickup_orlanskiS.ckptA.007.006.data
(PID.TID 0000.0001)  MDS_READ_SEC_XZ: opening file: pickup_orlanskiS.ckptA.008.006.data
(PID.TID 0000.0001)  MDS_READ_SEC_XZ: opening file: pickup_orlanskiS.ckptA.009.006.data
(PID.TID 0000.0001)  MDS_READ_SEC_XZ: opening file: pickup_orlanskiS.ckptA.010.006.data
(PID.TID 0000.0001)  MDS_READ_SEC_XZ: opening file: pickup_orlanskiS.ckptA.011.006.data
(PID.TID 0000.0001)  MDS_READ_SEC_XZ: opening file: pickup_orlanskiS.ckptA.012.006.data
(PID.TID 0000.0001)  MDS_READ_SEC_XZ: opening file: pickup_orlanskiS.ckptA.013.006.data
(PID.TID 0000.0001)  MDS_READ_SEC_XZ: opening file: pickup_orlanskiS.ckptA.014.006.data
(PID.TID 0000.0001)  MDS_READ_SEC_XZ: opening file: pickup_orlanskiS.ckptA.015.006.data
(PID.TID 0000.0001)  MDS_READ_SEC_XZ: opening file: pickup_orlanskiS.ckptA.001.007.data
(PID.TID 0000.0001)  MDS_READ_SEC_XZ: opening file: pickup_orlanskiS.ckptA.002.007.data
(PID.TID 0000.0001)  MDS_READ_SEC_XZ: opening file: pickup_orlanskiS.ckptA.003.007.data
(PID.TID 0000.0001)  MDS_READ_SEC_XZ: opening file: pickup_orlanskiS.ckptA.004.007.data
(PID.TID 0000.0001)  MDS_READ_SEC_XZ: opening file: pickup_orlanskiS.ckptA.005.007.data
(PID.TID 0000.0001)  MDS_READ_SEC_XZ: opening file: pickup_orlanskiS.ckptA.006.007.data
(PID.TID 0000.0001)  MDS_READ_SEC_XZ: opening file: pickup_orlanskiS.ckptA.007.007.data
(PID.TID 0000.0001)  MDS_READ_SEC_XZ: opening file: pickup_orlanskiS.ckptA.008.007.data
(PID.TID 0000.0001)  MDS_READ_SEC_XZ: opening file: pickup_orlanskiS.ckptA.009.007.data
(PID.TID 0000.0001)  MDS_READ_SEC_XZ: opening file: pickup_orlanskiS.ckptA.010.007.data
(PID.TID 0000.0001)  MDS_READ_SEC_XZ: opening file: pickup_orlanskiS.ckptA.011.007.data
(PID.TID 0000.0001)  MDS_READ_SEC_XZ: opening file: pickup_orlanskiS.ckptA.012.007.data
(PID.TID 0000.0001)  MDS_READ_SEC_XZ: opening file: pickup_orlanskiS.ckptA.013.007.data
(PID.TID 0000.0001)  MDS_READ_SEC_XZ: opening file: pickup_orlanskiS.ckptA.014.007.data
(PID.TID 0000.0001)  MDS_READ_SEC_XZ: opening file: pickup_orlanskiS.ckptA.015.007.data
(PID.TID 0000.0001)  MDS_READ_SEC_XZ: opening file: pickup_orlanskiS.ckptA.001.008.data
(PID.TID 0000.0001)  MDS_READ_SEC_XZ: opening file: pickup_orlanskiS.ckptA.002.008.data
(PID.TID 0000.0001)  MDS_READ_SEC_XZ: opening file: pickup_orlanskiS.ckptA.003.008.data
(PID.TID 0000.0001)  MDS_READ_SEC_XZ: opening file: pickup_orlanskiS.ckptA.004.008.data
(PID.TID 0000.0001)  MDS_READ_SEC_XZ: opening file: pickup_orlanskiS.ckptA.005.008.data
(PID.TID 0000.0001)  MDS_READ_SEC_XZ: opening file: pickup_orlanskiS.ckptA.006.008.data
(PID.TID 0000.0001)  MDS_READ_SEC_XZ: opening file: pickup_orlanskiS.ckptA.007.008.data
(PID.TID 0000.0001)  MDS_READ_SEC_XZ: opening file: pickup_orlanskiS.ckptA.008.008.data
(PID.TID 0000.0001)  MDS_READ_SEC_XZ: opening file: pickup_orlanskiS.ckptA.009.008.data
(PID.TID 0000.0001)  MDS_READ_SEC_XZ: opening file: pickup_orlanskiS.ckptA.010.008.data
(PID.TID 0000.0001)  MDS_READ_SEC_XZ: opening file: pickup_orlanskiS.ckptA.011.008.data
(PID.TID 0000.0001)  MDS_READ_SEC_XZ: opening file: pickup_orlanskiS.ckptA.012.008.data
(PID.TID 0000.0001)  MDS_READ_SEC_XZ: opening file: pickup_orlanskiS.ckptA.013.008.data
(PID.TID 0000.0001)  MDS_READ_SEC_XZ: opening file: pickup_orlanskiS.ckptA.014.008.data
(PID.TID 0000.0001)  MDS_READ_SEC_XZ: opening file: pickup_orlanskiS.ckptA.015.008.data
(PID.TID 0000.0001)  MDS_READ_SEC_XZ: opening file: pickup_orlanskiS.ckptA.001.009.data
(PID.TID 0000.0001)  MDS_READ_SEC_XZ: opening file: pickup_orlanskiS.ckptA.002.009.data
(PID.TID 0000.0001)  MDS_READ_SEC_XZ: opening file: pickup_orlanskiS.ckptA.003.009.data
(PID.TID 0000.0001)  MDS_READ_SEC_XZ: opening file: pickup_orlanskiS.ckptA.004.009.data
(PID.TID 0000.0001)  MDS_READ_SEC_XZ: opening file: pickup_orlanskiS.ckptA.005.009.data
(PID.TID 0000.0001)  MDS_READ_SEC_XZ: opening file: pickup_orlanskiS.ckptA.006.009.data
(PID.TID 0000.0001)  MDS_READ_SEC_XZ: opening file: pickup_orlanskiS.ckptA.007.009.data
(PID.TID 0000.0001)  MDS_READ_SEC_XZ: opening file: pickup_orlanskiS.ckptA.008.009.data
(PID.TID 0000.0001)  MDS_READ_SEC_XZ: opening file: pickup_orlanskiS.ckptA.009.009.data
(PID.TID 0000.0001)  MDS_READ_SEC_XZ: opening file: pickup_orlanskiS.ckptA.010.009.data
(PID.TID 0000.0001)  MDS_READ_SEC_XZ: opening file: pickup_orlanskiS.ckptA.011.009.data
(PID.TID 0000.0001)  MDS_READ_SEC_XZ: opening file: pickup_orlanskiS.ckptA.012.009.data
(PID.TID 0000.0001)  MDS_READ_SEC_XZ: opening file: pickup_orlanskiS.ckptA.013.009.data
(PID.TID 0000.0001)  MDS_READ_SEC_XZ: opening file: pickup_orlanskiS.ckptA.014.009.data
(PID.TID 0000.0001)  MDS_READ_SEC_XZ: opening file: pickup_orlanskiS.ckptA.015.009.data
(PID.TID 0000.0001)  MDS_READ_SEC_XZ: opening file: pickup_orlanskiS.ckptA.001.010.data
(PID.TID 0000.0001)  MDS_READ_SEC_XZ: opening file: pickup_orlanskiS.ckptA.002.010.data
(PID.TID 0000.0001)  MDS_READ_SEC_XZ: opening file: pickup_orlanskiS.ckptA.003.010.data
(PID.TID 0000.0001)  MDS_READ_SEC_XZ: opening file: pickup_orlanskiS.ckptA.004.010.data
(PID.TID 0000.0001)  MDS_READ_SEC_XZ: opening file: pickup_orlanskiS.ckptA.005.010.data
(PID.TID 0000.0001)  MDS_READ_SEC_XZ: opening file: pickup_orlanskiS.ckptA.006.010.data
(PID.TID 0000.0001)  MDS_READ_SEC_XZ: opening file: pickup_orlanskiS.ckptA.007.010.data
(PID.TID 0000.0001)  MDS_READ_SEC_XZ: opening file: pickup_orlanskiS.ckptA.008.010.data
(PID.TID 0000.0001)  MDS_READ_SEC_XZ: opening file: pickup_orlanskiS.ckptA.009.010.data
(PID.TID 0000.0001)  MDS_READ_SEC_XZ: opening file: pickup_orlanskiS.ckptA.010.010.data
(PID.TID 0000.0001)  MDS_READ_SEC_XZ: opening file: pickup_orlanskiS.ckptA.011.010.data
(PID.TID 0000.0001)  MDS_READ_SEC_XZ: opening file: pickup_orlanskiS.ckptA.012.010.data
(PID.TID 0000.0001)  MDS_READ_SEC_XZ: opening file: pickup_orlanskiS.ckptA.013.010.data
(PID.TID 0000.0001)  MDS_READ_SEC_XZ: opening file: pickup_orlanskiS.ckptA.014.010.data
(PID.TID 0000.0001)  MDS_READ_SEC_XZ: opening file: pickup_orlanskiS.ckptA.015.010.data
(PID.TID 0000.0001)  MDS_READ_SEC_XZ: opening file: pickup_orlanskiS.ckptA.001.011.data
(PID.TID 0000.0001)  MDS_READ_SEC_XZ: opening file: pickup_orlanskiS.ckptA.002.011.data
(PID.TID 0000.0001)  MDS_READ_SEC_XZ: opening file: pickup_orlanskiS.ckptA.003.011.data
(PID.TID 0000.0001)  MDS_READ_SEC_XZ: opening file: pickup_orlanskiS.ckptA.004.011.data
(PID.TID 0000.0001)  MDS_READ_SEC_XZ: opening file: pickup_orlanskiS.ckptA.005.011.data
(PID.TID 0000.0001)  MDS_READ_SEC_XZ: opening file: pickup_orlanskiS.ckptA.006.011.data
(PID.TID 0000.0001)  MDS_READ_SEC_XZ: opening file: pickup_orlanskiS.ckptA.007.011.data
(PID.TID 0000.0001)  MDS_READ_SEC_XZ: opening file: pickup_orlanskiS.ckptA.008.011.data
(PID.TID 0000.0001)  MDS_READ_SEC_XZ: opening file: pickup_orlanskiS.ckptA.009.011.data
(PID.TID 0000.0001)  MDS_READ_SEC_XZ: opening file: pickup_orlanskiS.ckptA.010.011.data
(PID.TID 0000.0001)  MDS_READ_SEC_XZ: opening file: pickup_orlanskiS.ckptA.011.011.data
(PID.TID 0000.0001)  MDS_READ_SEC_XZ: opening file: pickup_orlanskiS.ckptA.012.011.data
(PID.TID 0000.0001)  MDS_READ_SEC_XZ: opening file: pickup_orlanskiS.ckptA.013.011.data
(PID.TID 0000.0001)  MDS_READ_SEC_XZ: opening file: pickup_orlanskiS.ckptA.014.011.data
(PID.TID 0000.0001)  MDS_READ_SEC_XZ: opening file: pickup_orlanskiS.ckptA.015.011.data
(PID.TID 0000.0001)  MDS_READ_SEC_XZ: opening file: pickup_orlanskiS.ckptA.001.012.data
(PID.TID 0000.0001)  MDS_READ_SEC_XZ: opening file: pickup_orlanskiS.ckptA.002.012.data
(PID.TID 0000.0001)  MDS_READ_SEC_XZ: opening file: pickup_orlanskiS.ckptA.003.012.data
(PID.TID 0000.0001)  MDS_READ_SEC_XZ: opening file: pickup_orlanskiS.ckptA.004.012.data
(PID.TID 0000.0001)  MDS_READ_SEC_XZ: opening file: pickup_orlanskiS.ckptA.005.012.data
(PID.TID 0000.0001)  MDS_READ_SEC_XZ: opening file: pickup_orlanskiS.ckptA.006.012.data
(PID.TID 0000.0001)  MDS_READ_SEC_XZ: opening file: pickup_orlanskiS.ckptA.007.012.data
(PID.TID 0000.0001)  MDS_READ_SEC_XZ: opening file: pickup_orlanskiS.ckptA.008.012.data
(PID.TID 0000.0001)  MDS_READ_SEC_XZ: opening file: pickup_orlanskiS.ckptA.009.012.data
(PID.TID 0000.0001)  MDS_READ_SEC_XZ: opening file: pickup_orlanskiS.ckptA.010.012.data
(PID.TID 0000.0001)  MDS_READ_SEC_XZ: opening file: pickup_orlanskiS.ckptA.011.012.data
(PID.TID 0000.0001)  MDS_READ_SEC_XZ: opening file: pickup_orlanskiS.ckptA.012.012.data
(PID.TID 0000.0001)  MDS_READ_SEC_XZ: opening file: pickup_orlanskiS.ckptA.013.012.data
(PID.TID 0000.0001)  MDS_READ_SEC_XZ: opening file: pickup_orlanskiS.ckptA.014.012.data
(PID.TID 0000.0001)  MDS_READ_SEC_XZ: opening file: pickup_orlanskiS.ckptA.015.012.data
(PID.TID 0000.0001)  MDS_READ_SEC_XZ: opening file: pickup_orlanskiS.ckptA.001.013.data
(PID.TID 0000.0001)  MDS_READ_SEC_XZ: opening file: pickup_orlanskiS.ckptA.002.013.data
(PID.TID 0000.0001)  MDS_READ_SEC_XZ: opening file: pickup_orlanskiS.ckptA.003.013.data
(PID.TID 0000.0001)  MDS_READ_SEC_XZ: opening file: pickup_orlanskiS.ckptA.004.013.data
(PID.TID 0000.0001)  MDS_READ_SEC_XZ: opening file: pickup_orlanskiS.ckptA.005.013.data
(PID.TID 0000.0001)  MDS_READ_SEC_XZ: opening file: pickup_orlanskiS.ckptA.006.013.data
(PID.TID 0000.0001)  MDS_READ_SEC_XZ: opening file: pickup_orlanskiS.ckptA.007.013.data
(PID.TID 0000.0001)  MDS_READ_SEC_XZ: opening file: pickup_orlanskiS.ckptA.008.013.data
(PID.TID 0000.0001)  MDS_READ_SEC_XZ: opening file: pickup_orlanskiS.ckptA.009.013.data
(PID.TID 0000.0001)  MDS_READ_SEC_XZ: opening file: pickup_orlanskiS.ckptA.010.013.data
(PID.TID 0000.0001)  MDS_READ_SEC_XZ: opening file: pickup_orlanskiS.ckptA.011.013.data
(PID.TID 0000.0001)  MDS_READ_SEC_XZ: opening file: pickup_orlanskiS.ckptA.012.013.data
(PID.TID 0000.0001)  MDS_READ_SEC_XZ: opening file: pickup_orlanskiS.ckptA.013.013.data
(PID.TID 0000.0001)  MDS_READ_SEC_XZ: opening file: pickup_orlanskiS.ckptA.014.013.data
(PID.TID 0000.0001)  MDS_READ_SEC_XZ: opening file: pickup_orlanskiS.ckptA.015.013.data
(PID.TID 0000.0001)  MDS_READ_SEC_XZ: opening file: pickup_orlanskiS.ckptA.001.014.data
(PID.TID 0000.0001)  MDS_READ_SEC_XZ: opening file: pickup_orlanskiS.ckptA.002.014.data
(PID.TID 0000.0001)  MDS_READ_SEC_XZ: opening file: pickup_orlanskiS.ckptA.003.014.data
(PID.TID 0000.0001)  MDS_READ_SEC_XZ: opening file: pickup_orlanskiS.ckptA.004.014.data
(PID.TID 0000.0001)  MDS_READ_SEC_XZ: opening file: pickup_orlanskiS.ckptA.005.014.data
(PID.TID 0000.0001)  MDS_READ_SEC_XZ: opening file: pickup_orlanskiS.ckptA.006.014.data
(PID.TID 0000.0001)  MDS_READ_SEC_XZ: opening file: pickup_orlanskiS.ckptA.007.014.data
(PID.TID 0000.0001)  MDS_READ_SEC_XZ: opening file: pickup_orlanskiS.ckptA.008.014.data
(PID.TID 0000.0001)  MDS_READ_SEC_XZ: opening file: pickup_orlanskiS.ckptA.009.014.data
(PID.TID 0000.0001)  MDS_READ_SEC_XZ: opening file: pickup_orlanskiS.ckptA.010.014.data
(PID.TID 0000.0001)  MDS_READ_SEC_XZ: opening file: pickup_orlanskiS.ckptA.011.014.data
(PID.TID 0000.0001)  MDS_READ_SEC_XZ: opening file: pickup_orlanskiS.ckptA.012.014.data
(PID.TID 0000.0001)  MDS_READ_SEC_XZ: opening file: pickup_orlanskiS.ckptA.013.014.data
(PID.TID 0000.0001)  MDS_READ_SEC_XZ: opening file: pickup_orlanskiS.ckptA.014.014.data
(PID.TID 0000.0001)  MDS_READ_SEC_XZ: opening file: pickup_orlanskiS.ckptA.015.014.data
(PID.TID 0000.0001)  MDS_READ_SEC_XZ: opening file: pickup_orlanskiS.ckptA.001.015.data
(PID.TID 0000.0001)  MDS_READ_SEC_XZ: opening file: pickup_orlanskiS.ckptA.002.015.data
(PID.TID 0000.0001)  MDS_READ_SEC_XZ: opening file: pickup_orlanskiS.ckptA.003.015.data
(PID.TID 0000.0001)  MDS_READ_SEC_XZ: opening file: pickup_orlanskiS.ckptA.004.015.data
(PID.TID 0000.0001)  MDS_READ_SEC_XZ: opening file: pickup_orlanskiS.ckptA.005.015.data
(PID.TID 0000.0001)  MDS_READ_SEC_XZ: opening file: pickup_orlanskiS.ckptA.006.015.data
(PID.TID 0000.0001)  MDS_READ_SEC_XZ: opening file: pickup_orlanskiS.ckptA.007.015.data
(PID.TID 0000.0001)  MDS_READ_SEC_XZ: opening file: pickup_orlanskiS.ckptA.008.015.data
(PID.TID 0000.0001)  MDS_READ_SEC_XZ: opening file: pickup_orlanskiS.ckptA.009.015.data
(PID.TID 0000.0001)  MDS_READ_SEC_XZ: opening file: pickup_orlanskiS.ckptA.010.015.data
(PID.TID 0000.0001)  MDS_READ_SEC_XZ: opening file: pickup_orlanskiS.ckptA.011.015.data
(PID.TID 0000.0001)  MDS_READ_SEC_XZ: opening file: pickup_orlanskiS.ckptA.012.015.data
(PID.TID 0000.0001)  MDS_READ_SEC_XZ: opening file: pickup_orlanskiS.ckptA.013.015.data
(PID.TID 0000.0001)  MDS_READ_SEC_XZ: opening file: pickup_orlanskiS.ckptA.014.015.data
(PID.TID 0000.0001)  MDS_READ_SEC_XZ: opening file: pickup_orlanskiS.ckptA.015.015.data
(PID.TID 0000.0001)  MDS_READ_SEC_XZ: opening file: pickup_orlanskiS.ckptA.001.001.data
(PID.TID 0000.0001)  MDS_READ_SEC_XZ: opening file: pickup_orlanskiS.ckptA.002.001.data
(PID.TID 0000.0001)  MDS_READ_SEC_XZ: opening file: pickup_orlanskiS.ckptA.003.001.data
(PID.TID 0000.0001)  MDS_READ_SEC_XZ: opening file: pickup_orlanskiS.ckptA.004.001.data
(PID.TID 0000.0001)  MDS_READ_SEC_XZ: opening file: pickup_orlanskiS.ckptA.005.001.data
(PID.TID 0000.0001)  MDS_READ_SEC_XZ: opening file: pickup_orlanskiS.ckptA.006.001.data
(PID.TID 0000.0001)  MDS_READ_SEC_XZ: opening file: pickup_orlanskiS.ckptA.007.001.data
(PID.TID 0000.0001)  MDS_READ_SEC_XZ: opening file: pickup_orlanskiS.ckptA.008.001.data
(PID.TID 0000.0001)  MDS_READ_SEC_XZ: opening file: pickup_orlanskiS.ckptA.009.001.data
(PID.TID 0000.0001)  MDS_READ_SEC_XZ: opening file: pickup_orlanskiS.ckptA.010.001.data
(PID.TID 0000.0001)  MDS_READ_SEC_XZ: opening file: pickup_orlanskiS.ckptA.011.001.data
(PID.TID 0000.0001)  MDS_READ_SEC_XZ: opening file: pickup_orlanskiS.ckptA.012.001.data
(PID.TID 0000.0001)  MDS_READ_SEC_XZ: opening file: pickup_orlanskiS.ckptA.013.001.data
(PID.TID 0000.0001)  MDS_READ_SEC_XZ: opening file: pickup_orlanskiS.ckptA.014.001.data
(PID.TID 0000.0001)  MDS_READ_SEC_XZ: opening file: pickup_orlanskiS.ckptA.015.001.data
(PID.TID 0000.0001)  MDS_READ_SEC_XZ: opening file: pickup_orlanskiS.ckptA.001.002.data
(PID.TID 0000.0001)  MDS_READ_SEC_XZ: opening file: pickup_orlanskiS.ckptA.002.002.data
(PID.TID 0000.0001)  MDS_READ_SEC_XZ: opening file: pickup_orlanskiS.ckptA.003.002.data
(PID.TID 0000.0001)  MDS_READ_SEC_XZ: opening file: pickup_orlanskiS.ckptA.004.002.data
(PID.TID 0000.0001)  MDS_READ_SEC_XZ: opening file: pickup_orlanskiS.ckptA.005.002.data
(PID.TID 0000.0001)  MDS_READ_SEC_XZ: opening file: pickup_orlanskiS.ckptA.006.002.data
(PID.TID 0000.0001)  MDS_READ_SEC_XZ: opening file: pickup_orlanskiS.ckptA.007.002.data
(PID.TID 0000.0001)  MDS_READ_SEC_XZ: opening file: pickup_orlanskiS.ckptA.008.002.data
(PID.TID 0000.0001)  MDS_READ_SEC_XZ: opening file: pickup_orlanskiS.ckptA.009.002.data
(PID.TID 0000.0001)  MDS_READ_SEC_XZ: opening file: pickup_orlanskiS.ckptA.010.002.data
(PID.TID 0000.0001)  MDS_READ_SEC_XZ: opening file: pickup_orlanskiS.ckptA.011.002.data
(PID.TID 0000.0001)  MDS_READ_SEC_XZ: opening file: pickup_orlanskiS.ckptA.012.002.data
(PID.TID 0000.0001)  MDS_READ_SEC_XZ: opening file: pickup_orlanskiS.ckptA.013.002.data
(PID.TID 0000.0001)  MDS_READ_SEC_XZ: opening file: pickup_orlanskiS.ckptA.014.002.data
(PID.TID 0000.0001)  MDS_READ_SEC_XZ: opening file: pickup_orlanskiS.ckptA.015.002.data
(PID.TID 0000.0001)  MDS_READ_SEC_XZ: opening file: pickup_orlanskiS.ckptA.001.003.data
(PID.TID 0000.0001)  MDS_READ_SEC_XZ: opening file: pickup_orlanskiS.ckptA.002.003.data
(PID.TID 0000.0001)  MDS_READ_SEC_XZ: opening file: pickup_orlanskiS.ckptA.003.003.data
(PID.TID 0000.0001)  MDS_READ_SEC_XZ: opening file: pickup_orlanskiS.ckptA.004.003.data
(PID.TID 0000.0001)  MDS_READ_SEC_XZ: opening file: pickup_orlanskiS.ckptA.005.003.data
(PID.TID 0000.0001)  MDS_READ_SEC_XZ: opening file: pickup_orlanskiS.ckptA.006.003.data
(PID.TID 0000.0001)  MDS_READ_SEC_XZ: opening file: pickup_orlanskiS.ckptA.007.003.data
(PID.TID 0000.0001)  MDS_READ_SEC_XZ: opening file: pickup_orlanskiS.ckptA.008.003.data
(PID.TID 0000.0001)  MDS_READ_SEC_XZ: opening file: pickup_orlanskiS.ckptA.009.003.data
(PID.TID 0000.0001)  MDS_READ_SEC_XZ: opening file: pickup_orlanskiS.ckptA.010.003.data
(PID.TID 0000.0001)  MDS_READ_SEC_XZ: opening file: pickup_orlanskiS.ckptA.011.003.data
(PID.TID 0000.0001)  MDS_READ_SEC_XZ: opening file: pickup_orlanskiS.ckptA.012.003.data
(PID.TID 0000.0001)  MDS_READ_SEC_XZ: opening file: pickup_orlanskiS.ckptA.013.003.data
(PID.TID 0000.0001)  MDS_READ_SEC_XZ: opening file: pickup_orlanskiS.ckptA.014.003.data
(PID.TID 0000.0001)  MDS_READ_SEC_XZ: opening file: pickup_orlanskiS.ckptA.015.003.data
(PID.TID 0000.0001)  MDS_READ_SEC_XZ: opening file: pickup_orlanskiS.ckptA.001.004.data
(PID.TID 0000.0001)  MDS_READ_SEC_XZ: opening file: pickup_orlanskiS.ckptA.002.004.data
(PID.TID 0000.0001)  MDS_READ_SEC_XZ: opening file: pickup_orlanskiS.ckptA.003.004.data
(PID.TID 0000.0001)  MDS_READ_SEC_XZ: opening file: pickup_orlanskiS.ckptA.004.004.data
(PID.TID 0000.0001)  MDS_READ_SEC_XZ: opening file: pickup_orlanskiS.ckptA.005.004.data
(PID.TID 0000.0001)  MDS_READ_SEC_XZ: opening file: pickup_orlanskiS.ckptA.006.004.data
(PID.TID 0000.0001)  MDS_READ_SEC_XZ: opening file: pickup_orlanskiS.ckptA.007.004.data
(PID.TID 0000.0001)  MDS_READ_SEC_XZ: opening file: pickup_orlanskiS.ckptA.008.004.data
(PID.TID 0000.0001)  MDS_READ_SEC_XZ: opening file: pickup_orlanskiS.ckptA.009.004.data
(PID.TID 0000.0001)  MDS_READ_SEC_XZ: opening file: pickup_orlanskiS.ckptA.010.004.data
(PID.TID 0000.0001)  MDS_READ_SEC_XZ: opening file: pickup_orlanskiS.ckptA.011.004.data
(PID.TID 0000.0001)  MDS_READ_SEC_XZ: opening file: pickup_orlanskiS.ckptA.012.004.data
(PID.TID 0000.0001)  MDS_READ_SEC_XZ: opening file: pickup_orlanskiS.ckptA.013.004.data
(PID.TID 0000.0001)  MDS_READ_SEC_XZ: opening file: pickup_orlanskiS.ckptA.014.004.data
(PID.TID 0000.0001)  MDS_READ_SEC_XZ: opening file: pickup_orlanskiS.ckptA.015.004.data
(PID.TID 0000.0001)  MDS_READ_SEC_XZ: opening file: pickup_orlanskiS.ckptA.001.005.data
(PID.TID 0000.0001)  MDS_READ_SEC_XZ: opening file: pickup_orlanskiS.ckptA.002.005.data
(PID.TID 0000.0001)  MDS_READ_SEC_XZ: opening file: pickup_orlanskiS.ckptA.003.005.data
(PID.TID 0000.0001)  MDS_READ_SEC_XZ: opening file: pickup_orlanskiS.ckptA.004.005.data
(PID.TID 0000.0001)  MDS_READ_SEC_XZ: opening file: pickup_orlanskiS.ckptA.005.005.data
(PID.TID 0000.0001)  MDS_READ_SEC_XZ: opening file: pickup_orlanskiS.ckptA.006.005.data
(PID.TID 0000.0001)  MDS_READ_SEC_XZ: opening file: pickup_orlanskiS.ckptA.007.005.data
(PID.TID 0000.0001)  MDS_READ_SEC_XZ: opening file: pickup_orlanskiS.ckptA.008.005.data
(PID.TID 0000.0001)  MDS_READ_SEC_XZ: opening file: pickup_orlanskiS.ckptA.009.005.data
(PID.TID 0000.0001)  MDS_READ_SEC_XZ: opening file: pickup_orlanskiS.ckptA.010.005.data
(PID.TID 0000.0001)  MDS_READ_SEC_XZ: opening file: pickup_orlanskiS.ckptA.011.005.data
(PID.TID 0000.0001)  MDS_READ_SEC_XZ: opening file: pickup_orlanskiS.ckptA.012.005.data
(PID.TID 0000.0001)  MDS_READ_SEC_XZ: opening file: pickup_orlanskiS.ckptA.013.005.data
(PID.TID 0000.0001)  MDS_READ_SEC_XZ: opening file: pickup_orlanskiS.ckptA.014.005.data
(PID.TID 0000.0001)  MDS_READ_SEC_XZ: opening file: pickup_orlanskiS.ckptA.015.005.data
(PID.TID 0000.0001)  MDS_READ_SEC_XZ: opening file: pickup_orlanskiS.ckptA.001.006.data
(PID.TID 0000.0001)  MDS_READ_SEC_XZ: opening file: pickup_orlanskiS.ckptA.002.006.data
(PID.TID 0000.0001)  MDS_READ_SEC_XZ: opening file: pickup_orlanskiS.ckptA.003.006.data
(PID.TID 0000.0001)  MDS_READ_SEC_XZ: opening file: pickup_orlanskiS.ckptA.004.006.data
(PID.TID 0000.0001)  MDS_READ_SEC_XZ: opening file: pickup_orlanskiS.ckptA.005.006.data
(PID.TID 0000.0001)  MDS_READ_SEC_XZ: opening file: pickup_orlanskiS.ckptA.006.006.data
(PID.TID 0000.0001)  MDS_READ_SEC_XZ: opening file: pickup_orlanskiS.ckptA.007.006.data
(PID.TID 0000.0001)  MDS_READ_SEC_XZ: opening file: pickup_orlanskiS.ckptA.008.006.data
(PID.TID 0000.0001)  MDS_READ_SEC_XZ: opening file: pickup_orlanskiS.ckptA.009.006.data
(PID.TID 0000.0001)  MDS_READ_SEC_XZ: opening file: pickup_orlanskiS.ckptA.010.006.data
(PID.TID 0000.0001)  MDS_READ_SEC_XZ: opening file: pickup_orlanskiS.ckptA.011.006.data
(PID.TID 0000.0001)  MDS_READ_SEC_XZ: opening file: pickup_orlanskiS.ckptA.012.006.data
(PID.TID 0000.0001)  MDS_READ_SEC_XZ: opening file: pickup_orlanskiS.ckptA.013.006.data
(PID.TID 0000.0001)  MDS_READ_SEC_XZ: opening file: pickup_orlanskiS.ckptA.014.006.data
(PID.TID 0000.0001)  MDS_READ_SEC_XZ: opening file: pickup_orlanskiS.ckptA.015.006.data
(PID.TID 0000.0001)  MDS_READ_SEC_XZ: opening file: pickup_orlanskiS.ckptA.001.007.data
(PID.TID 0000.0001)  MDS_READ_SEC_XZ: opening file: pickup_orlanskiS.ckptA.002.007.data
(PID.TID 0000.0001)  MDS_READ_SEC_XZ: opening file: pickup_orlanskiS.ckptA.003.007.data
(PID.TID 0000.0001)  MDS_READ_SEC_XZ: opening file: pickup_orlanskiS.ckptA.004.007.data
(PID.TID 0000.0001)  MDS_READ_SEC_XZ: opening file: pickup_orlanskiS.ckptA.005.007.data
(PID.TID 0000.0001)  MDS_READ_SEC_XZ: opening file: pickup_orlanskiS.ckptA.006.007.data
(PID.TID 0000.0001)  MDS_READ_SEC_XZ: opening file: pickup_orlanskiS.ckptA.007.007.data
(PID.TID 0000.0001)  MDS_READ_SEC_XZ: opening file: pickup_orlanskiS.ckptA.008.007.data
(PID.TID 0000.0001)  MDS_READ_SEC_XZ: opening file: pickup_orlanskiS.ckptA.009.007.data
(PID.TID 0000.0001)  MDS_READ_SEC_XZ: opening file: pickup_orlanskiS.ckptA.010.007.data
(PID.TID 0000.0001)  MDS_READ_SEC_XZ: opening file: pickup_orlanskiS.ckptA.011.007.data
(PID.TID 0000.0001)  MDS_READ_SEC_XZ: opening file: pickup_orlanskiS.ckptA.012.007.data
(PID.TID 0000.0001)  MDS_READ_SEC_XZ: opening file: pickup_orlanskiS.ckptA.013.007.data
(PID.TID 0000.0001)  MDS_READ_SEC_XZ: opening file: pickup_orlanskiS.ckptA.014.007.data
(PID.TID 0000.0001)  MDS_READ_SEC_XZ: opening file: pickup_orlanskiS.ckptA.015.007.data
(PID.TID 0000.0001)  MDS_READ_SEC_XZ: opening file: pickup_orlanskiS.ckptA.001.008.data
(PID.TID 0000.0001)  MDS_READ_SEC_XZ: opening file: pickup_orlanskiS.ckptA.002.008.data
(PID.TID 0000.0001)  MDS_READ_SEC_XZ: opening file: pickup_orlanskiS.ckptA.003.008.data
(PID.TID 0000.0001)  MDS_READ_SEC_XZ: opening file: pickup_orlanskiS.ckptA.004.008.data
(PID.TID 0000.0001)  MDS_READ_SEC_XZ: opening file: pickup_orlanskiS.ckptA.005.008.data
(PID.TID 0000.0001)  MDS_READ_SEC_XZ: opening file: pickup_orlanskiS.ckptA.006.008.data
(PID.TID 0000.0001)  MDS_READ_SEC_XZ: opening file: pickup_orlanskiS.ckptA.007.008.data
(PID.TID 0000.0001)  MDS_READ_SEC_XZ: opening file: pickup_orlanskiS.ckptA.008.008.data
(PID.TID 0000.0001)  MDS_READ_SEC_XZ: opening file: pickup_orlanskiS.ckptA.009.008.data
(PID.TID 0000.0001)  MDS_READ_SEC_XZ: opening file: pickup_orlanskiS.ckptA.010.008.data
(PID.TID 0000.0001)  MDS_READ_SEC_XZ: opening file: pickup_orlanskiS.ckptA.011.008.data
(PID.TID 0000.0001)  MDS_READ_SEC_XZ: opening file: pickup_orlanskiS.ckptA.012.008.data
(PID.TID 0000.0001)  MDS_READ_SEC_XZ: opening file: pickup_orlanskiS.ckptA.013.008.data
(PID.TID 0000.0001)  MDS_READ_SEC_XZ: opening file: pickup_orlanskiS.ckptA.014.008.data
(PID.TID 0000.0001)  MDS_READ_SEC_XZ: opening file: pickup_orlanskiS.ckptA.015.008.data
(PID.TID 0000.0001)  MDS_READ_SEC_XZ: opening file: pickup_orlanskiS.ckptA.001.009.data
(PID.TID 0000.0001)  MDS_READ_SEC_XZ: opening file: pickup_orlanskiS.ckptA.002.009.data
(PID.TID 0000.0001)  MDS_READ_SEC_XZ: opening file: pickup_orlanskiS.ckptA.003.009.data
(PID.TID 0000.0001)  MDS_READ_SEC_XZ: opening file: pickup_orlanskiS.ckptA.004.009.data
(PID.TID 0000.0001)  MDS_READ_SEC_XZ: opening file: pickup_orlanskiS.ckptA.005.009.data
(PID.TID 0000.0001)  MDS_READ_SEC_XZ: opening file: pickup_orlanskiS.ckptA.006.009.data
(PID.TID 0000.0001)  MDS_READ_SEC_XZ: opening file: pickup_orlanskiS.ckptA.007.009.data
(PID.TID 0000.0001)  MDS_READ_SEC_XZ: opening file: pickup_orlanskiS.ckptA.008.009.data
(PID.TID 0000.0001)  MDS_READ_SEC_XZ: opening file: pickup_orlanskiS.ckptA.009.009.data
(PID.TID 0000.0001)  MDS_READ_SEC_XZ: opening file: pickup_orlanskiS.ckptA.010.009.data
(PID.TID 0000.0001)  MDS_READ_SEC_XZ: opening file: pickup_orlanskiS.ckptA.011.009.data
(PID.TID 0000.0001)  MDS_READ_SEC_XZ: opening file: pickup_orlanskiS.ckptA.012.009.data
(PID.TID 0000.0001)  MDS_READ_SEC_XZ: opening file: pickup_orlanskiS.ckptA.013.009.data
(PID.TID 0000.0001)  MDS_READ_SEC_XZ: opening file: pickup_orlanskiS.ckptA.014.009.data
(PID.TID 0000.0001)  MDS_READ_SEC_XZ: opening file: pickup_orlanskiS.ckptA.015.009.data
(PID.TID 0000.0001)  MDS_READ_SEC_XZ: opening file: pickup_orlanskiS.ckptA.001.010.data
(PID.TID 0000.0001)  MDS_READ_SEC_XZ: opening file: pickup_orlanskiS.ckptA.002.010.data
(PID.TID 0000.0001)  MDS_READ_SEC_XZ: opening file: pickup_orlanskiS.ckptA.003.010.data
(PID.TID 0000.0001)  MDS_READ_SEC_XZ: opening file: pickup_orlanskiS.ckptA.004.010.data
(PID.TID 0000.0001)  MDS_READ_SEC_XZ: opening file: pickup_orlanskiS.ckptA.005.010.data
(PID.TID 0000.0001)  MDS_READ_SEC_XZ: opening file: pickup_orlanskiS.ckptA.006.010.data
(PID.TID 0000.0001)  MDS_READ_SEC_XZ: opening file: pickup_orlanskiS.ckptA.007.010.data
(PID.TID 0000.0001)  MDS_READ_SEC_XZ: opening file: pickup_orlanskiS.ckptA.008.010.data
(PID.TID 0000.0001)  MDS_READ_SEC_XZ: opening file: pickup_orlanskiS.ckptA.009.010.data
(PID.TID 0000.0001)  MDS_READ_SEC_XZ: opening file: pickup_orlanskiS.ckptA.010.010.data
(PID.TID 0000.0001)  MDS_READ_SEC_XZ: opening file: pickup_orlanskiS.ckptA.011.010.data
(PID.TID 0000.0001)  MDS_READ_SEC_XZ: opening file: pickup_orlanskiS.ckptA.012.010.data
(PID.TID 0000.0001)  MDS_READ_SEC_XZ: opening file: pickup_orlanskiS.ckptA.013.010.data
(PID.TID 0000.0001)  MDS_READ_SEC_XZ: opening file: pickup_orlanskiS.ckptA.014.010.data
(PID.TID 0000.0001)  MDS_READ_SEC_XZ: opening file: pickup_orlanskiS.ckptA.015.010.data
(PID.TID 0000.0001)  MDS_READ_SEC_XZ: opening file: pickup_orlanskiS.ckptA.001.011.data
(PID.TID 0000.0001)  MDS_READ_SEC_XZ: opening file: pickup_orlanskiS.ckptA.002.011.data
(PID.TID 0000.0001)  MDS_READ_SEC_XZ: opening file: pickup_orlanskiS.ckptA.003.011.data
(PID.TID 0000.0001)  MDS_READ_SEC_XZ: opening file: pickup_orlanskiS.ckptA.004.011.data
(PID.TID 0000.0001)  MDS_READ_SEC_XZ: opening file: pickup_orlanskiS.ckptA.005.011.data
(PID.TID 0000.0001)  MDS_READ_SEC_XZ: opening file: pickup_orlanskiS.ckptA.006.011.data
(PID.TID 0000.0001)  MDS_READ_SEC_XZ: opening file: pickup_orlanskiS.ckptA.007.011.data
(PID.TID 0000.0001)  MDS_READ_SEC_XZ: opening file: pickup_orlanskiS.ckptA.008.011.data
(PID.TID 0000.0001)  MDS_READ_SEC_XZ: opening file: pickup_orlanskiS.ckptA.009.011.data
(PID.TID 0000.0001)  MDS_READ_SEC_XZ: opening file: pickup_orlanskiS.ckptA.010.011.data
(PID.TID 0000.0001)  MDS_READ_SEC_XZ: opening file: pickup_orlanskiS.ckptA.011.011.data
(PID.TID 0000.0001)  MDS_READ_SEC_XZ: opening file: pickup_orlanskiS.ckptA.012.011.data
(PID.TID 0000.0001)  MDS_READ_SEC_XZ: opening file: pickup_orlanskiS.ckptA.013.011.data
(PID.TID 0000.0001)  MDS_READ_SEC_XZ: opening file: pickup_orlanskiS.ckptA.014.011.data
(PID.TID 0000.0001)  MDS_READ_SEC_XZ: opening file: pickup_orlanskiS.ckptA.015.011.data
(PID.TID 0000.0001)  MDS_READ_SEC_XZ: opening file: pickup_orlanskiS.ckptA.001.012.data
(PID.TID 0000.0001)  MDS_READ_SEC_XZ: opening file: pickup_orlanskiS.ckptA.002.012.data
(PID.TID 0000.0001)  MDS_READ_SEC_XZ: opening file: pickup_orlanskiS.ckptA.003.012.data
(PID.TID 0000.0001)  MDS_READ_SEC_XZ: opening file: pickup_orlanskiS.ckptA.004.012.data
(PID.TID 0000.0001)  MDS_READ_SEC_XZ: opening file: pickup_orlanskiS.ckptA.005.012.data
(PID.TID 0000.0001)  MDS_READ_SEC_XZ: opening file: pickup_orlanskiS.ckptA.006.012.data
(PID.TID 0000.0001)  MDS_READ_SEC_XZ: opening file: pickup_orlanskiS.ckptA.007.012.data
(PID.TID 0000.0001)  MDS_READ_SEC_XZ: opening file: pickup_orlanskiS.ckptA.008.012.data
(PID.TID 0000.0001)  MDS_READ_SEC_XZ: opening file: pickup_orlanskiS.ckptA.009.012.data
(PID.TID 0000.0001)  MDS_READ_SEC_XZ: opening file: pickup_orlanskiS.ckptA.010.012.data
(PID.TID 0000.0001)  MDS_READ_SEC_XZ: opening file: pickup_orlanskiS.ckptA.011.012.data
(PID.TID 0000.0001)  MDS_READ_SEC_XZ: opening file: pickup_orlanskiS.ckptA.012.012.data
(PID.TID 0000.0001)  MDS_READ_SEC_XZ: opening file: pickup_orlanskiS.ckptA.013.012.data
(PID.TID 0000.0001)  MDS_READ_SEC_XZ: opening file: pickup_orlanskiS.ckptA.014.012.data
(PID.TID 0000.0001)  MDS_READ_SEC_XZ: opening file: pickup_orlanskiS.ckptA.015.012.data
(PID.TID 0000.0001)  MDS_READ_SEC_XZ: opening file: pickup_orlanskiS.ckptA.001.013.data
(PID.TID 0000.0001)  MDS_READ_SEC_XZ: opening file: pickup_orlanskiS.ckptA.002.013.data
(PID.TID 0000.0001)  MDS_READ_SEC_XZ: opening file: pickup_orlanskiS.ckptA.003.013.data
(PID.TID 0000.0001)  MDS_READ_SEC_XZ: opening file: pickup_orlanskiS.ckptA.004.013.data
(PID.TID 0000.0001)  MDS_READ_SEC_XZ: opening file: pickup_orlanskiS.ckptA.005.013.data
(PID.TID 0000.0001)  MDS_READ_SEC_XZ: opening file: pickup_orlanskiS.ckptA.006.013.data
(PID.TID 0000.0001)  MDS_READ_SEC_XZ: opening file: pickup_orlanskiS.ckptA.007.013.data
(PID.TID 0000.0001)  MDS_READ_SEC_XZ: opening file: pickup_orlanskiS.ckptA.008.013.data
(PID.TID 0000.0001)  MDS_READ_SEC_XZ: opening file: pickup_orlanskiS.ckptA.009.013.data
(PID.TID 0000.0001)  MDS_READ_SEC_XZ: opening file: pickup_orlanskiS.ckptA.010.013.data
(PID.TID 0000.0001)  MDS_READ_SEC_XZ: opening file: pickup_orlanskiS.ckptA.011.013.data
(PID.TID 0000.0001)  MDS_READ_SEC_XZ: opening file: pickup_orlanskiS.ckptA.012.013.data
(PID.TID 0000.0001)  MDS_READ_SEC_XZ: opening file: pickup_orlanskiS.ckptA.013.013.data
(PID.TID 0000.0001)  MDS_READ_SEC_XZ: opening file: pickup_orlanskiS.ckptA.014.013.data
(PID.TID 0000.0001)  MDS_READ_SEC_XZ: opening file: pickup_orlanskiS.ckptA.015.013.data
(PID.TID 0000.0001)  MDS_READ_SEC_XZ: opening file: pickup_orlanskiS.ckptA.001.014.data
(PID.TID 0000.0001)  MDS_READ_SEC_XZ: opening file: pickup_orlanskiS.ckptA.002.014.data
(PID.TID 0000.0001)  MDS_READ_SEC_XZ: opening file: pickup_orlanskiS.ckptA.003.014.data
(PID.TID 0000.0001)  MDS_READ_SEC_XZ: opening file: pickup_orlanskiS.ckptA.004.014.data
(PID.TID 0000.0001)  MDS_READ_SEC_XZ: opening file: pickup_orlanskiS.ckptA.005.014.data
(PID.TID 0000.0001)  MDS_READ_SEC_XZ: opening file: pickup_orlanskiS.ckptA.006.014.data
(PID.TID 0000.0001)  MDS_READ_SEC_XZ: opening file: pickup_orlanskiS.ckptA.007.014.data
(PID.TID 0000.0001)  MDS_READ_SEC_XZ: opening file: pickup_orlanskiS.ckptA.008.014.data
(PID.TID 0000.0001)  MDS_READ_SEC_XZ: opening file: pickup_orlanskiS.ckptA.009.014.data
(PID.TID 0000.0001)  MDS_READ_SEC_XZ: opening file: pickup_orlanskiS.ckptA.010.014.data
(PID.TID 0000.0001)  MDS_READ_SEC_XZ: opening file: pickup_orlanskiS.ckptA.011.014.data
(PID.TID 0000.0001)  MDS_READ_SEC_XZ: opening file: pickup_orlanskiS.ckptA.012.014.data
(PID.TID 0000.0001)  MDS_READ_SEC_XZ: opening file: pickup_orlanskiS.ckptA.013.014.data
(PID.TID 0000.0001)  MDS_READ_SEC_XZ: opening file: pickup_orlanskiS.ckptA.014.014.data
(PID.TID 0000.0001)  MDS_READ_SEC_XZ: opening file: pickup_orlanskiS.ckptA.015.014.data
(PID.TID 0000.0001)  MDS_READ_SEC_XZ: opening file: pickup_orlanskiS.ckptA.001.015.data
(PID.TID 0000.0001)  MDS_READ_SEC_XZ: opening file: pickup_orlanskiS.ckptA.002.015.data
(PID.TID 0000.0001)  MDS_READ_SEC_XZ: opening file: pickup_orlanskiS.ckptA.003.015.data
(PID.TID 0000.0001)  MDS_READ_SEC_XZ: opening file: pickup_orlanskiS.ckptA.004.015.data
(PID.TID 0000.0001)  MDS_READ_SEC_XZ: opening file: pickup_orlanskiS.ckptA.005.015.data
(PID.TID 0000.0001)  MDS_READ_SEC_XZ: opening file: pickup_orlanskiS.ckptA.006.015.data
(PID.TID 0000.0001)  MDS_READ_SEC_XZ: opening file: pickup_orlanskiS.ckptA.007.015.data
(PID.TID 0000.0001)  MDS_READ_SEC_XZ: opening file: pickup_orlanskiS.ckptA.008.015.data
(PID.TID 0000.0001)  MDS_READ_SEC_XZ: opening file: pickup_orlanskiS.ckptA.009.015.data
(PID.TID 0000.0001)  MDS_READ_SEC_XZ: opening file: pickup_orlanskiS.ckptA.010.015.data
(PID.TID 0000.0001)  MDS_READ_SEC_XZ: opening file: pickup_orlanskiS.ckptA.011.015.data
(PID.TID 0000.0001)  MDS_READ_SEC_XZ: opening file: pickup_orlanskiS.ckptA.012.015.data
(PID.TID 0000.0001)  MDS_READ_SEC_XZ: opening file: pickup_orlanskiS.ckptA.013.015.data
(PID.TID 0000.0001)  MDS_READ_SEC_XZ: opening file: pickup_orlanskiS.ckptA.014.015.data
(PID.TID 0000.0001)  MDS_READ_SEC_XZ: opening file: pickup_orlanskiS.ckptA.015.015.data
(PID.TID 0000.0001)  MDS_READ_SEC_XZ: opening file: pickup_orlanskiS.ckptA.001.001.data
(PID.TID 0000.0001)  MDS_READ_SEC_XZ: opening file: pickup_orlanskiS.ckptA.002.001.data
(PID.TID 0000.0001)  MDS_READ_SEC_XZ: opening file: pickup_orlanskiS.ckptA.003.001.data
(PID.TID 0000.0001)  MDS_READ_SEC_XZ: opening file: pickup_orlanskiS.ckptA.004.001.data
(PID.TID 0000.0001)  MDS_READ_SEC_XZ: opening file: pickup_orlanskiS.ckptA.005.001.data
(PID.TID 0000.0001)  MDS_READ_SEC_XZ: opening file: pickup_orlanskiS.ckptA.006.001.data
(PID.TID 0000.0001)  MDS_READ_SEC_XZ: opening file: pickup_orlanskiS.ckptA.007.001.data
(PID.TID 0000.0001)  MDS_READ_SEC_XZ: opening file: pickup_orlanskiS.ckptA.008.001.data
(PID.TID 0000.0001)  MDS_READ_SEC_XZ: opening file: pickup_orlanskiS.ckptA.009.001.data
(PID.TID 0000.0001)  MDS_READ_SEC_XZ: opening file: pickup_orlanskiS.ckptA.010.001.data
(PID.TID 0000.0001)  MDS_READ_SEC_XZ: opening file: pickup_orlanskiS.ckptA.011.001.data
(PID.TID 0000.0001)  MDS_READ_SEC_XZ: opening file: pickup_orlanskiS.ckptA.012.001.data
(PID.TID 0000.0001)  MDS_READ_SEC_XZ: opening file: pickup_orlanskiS.ckptA.013.001.data
(PID.TID 0000.0001)  MDS_READ_SEC_XZ: opening file: pickup_orlanskiS.ckptA.014.001.data
(PID.TID 0000.0001)  MDS_READ_SEC_XZ: opening file: pickup_orlanskiS.ckptA.015.001.data
(PID.TID 0000.0001)  MDS_READ_SEC_XZ: opening file: pickup_orlanskiS.ckptA.001.002.data
(PID.TID 0000.0001)  MDS_READ_SEC_XZ: opening file: pickup_orlanskiS.ckptA.002.002.data
(PID.TID 0000.0001)  MDS_READ_SEC_XZ: opening file: pickup_orlanskiS.ckptA.003.002.data
(PID.TID 0000.0001)  MDS_READ_SEC_XZ: opening file: pickup_orlanskiS.ckptA.004.002.data
(PID.TID 0000.0001)  MDS_READ_SEC_XZ: opening file: pickup_orlanskiS.ckptA.005.002.data
(PID.TID 0000.0001)  MDS_READ_SEC_XZ: opening file: pickup_orlanskiS.ckptA.006.002.data
(PID.TID 0000.0001)  MDS_READ_SEC_XZ: opening file: pickup_orlanskiS.ckptA.007.002.data
(PID.TID 0000.0001)  MDS_READ_SEC_XZ: opening file: pickup_orlanskiS.ckptA.008.002.data
(PID.TID 0000.0001)  MDS_READ_SEC_XZ: opening file: pickup_orlanskiS.ckptA.009.002.data
(PID.TID 0000.0001)  MDS_READ_SEC_XZ: opening file: pickup_orlanskiS.ckptA.010.002.data
(PID.TID 0000.0001)  MDS_READ_SEC_XZ: opening file: pickup_orlanskiS.ckptA.011.002.data
(PID.TID 0000.0001)  MDS_READ_SEC_XZ: opening file: pickup_orlanskiS.ckptA.012.002.data
(PID.TID 0000.0001)  MDS_READ_SEC_XZ: opening file: pickup_orlanskiS.ckptA.013.002.data
(PID.TID 0000.0001)  MDS_READ_SEC_XZ: opening file: pickup_orlanskiS.ckptA.014.002.data
(PID.TID 0000.0001)  MDS_READ_SEC_XZ: opening file: pickup_orlanskiS.ckptA.015.002.data
(PID.TID 0000.0001)  MDS_READ_SEC_XZ: opening file: pickup_orlanskiS.ckptA.001.003.data
(PID.TID 0000.0001)  MDS_READ_SEC_XZ: opening file: pickup_orlanskiS.ckptA.002.003.data
(PID.TID 0000.0001)  MDS_READ_SEC_XZ: opening file: pickup_orlanskiS.ckptA.003.003.data
(PID.TID 0000.0001)  MDS_READ_SEC_XZ: opening file: pickup_orlanskiS.ckptA.004.003.data
(PID.TID 0000.0001)  MDS_READ_SEC_XZ: opening file: pickup_orlanskiS.ckptA.005.003.data
(PID.TID 0000.0001)  MDS_READ_SEC_XZ: opening file: pickup_orlanskiS.ckptA.006.003.data
(PID.TID 0000.0001)  MDS_READ_SEC_XZ: opening file: pickup_orlanskiS.ckptA.007.003.data
(PID.TID 0000.0001)  MDS_READ_SEC_XZ: opening file: pickup_orlanskiS.ckptA.008.003.data
(PID.TID 0000.0001)  MDS_READ_SEC_XZ: opening file: pickup_orlanskiS.ckptA.009.003.data
(PID.TID 0000.0001)  MDS_READ_SEC_XZ: opening file: pickup_orlanskiS.ckptA.010.003.data
(PID.TID 0000.0001)  MDS_READ_SEC_XZ: opening file: pickup_orlanskiS.ckptA.011.003.data
(PID.TID 0000.0001)  MDS_READ_SEC_XZ: opening file: pickup_orlanskiS.ckptA.012.003.data
(PID.TID 0000.0001)  MDS_READ_SEC_XZ: opening file: pickup_orlanskiS.ckptA.013.003.data
(PID.TID 0000.0001)  MDS_READ_SEC_XZ: opening file: pickup_orlanskiS.ckptA.014.003.data
(PID.TID 0000.0001)  MDS_READ_SEC_XZ: opening file: pickup_orlanskiS.ckptA.015.003.data
(PID.TID 0000.0001)  MDS_READ_SEC_XZ: opening file: pickup_orlanskiS.ckptA.001.004.data
(PID.TID 0000.0001)  MDS_READ_SEC_XZ: opening file: pickup_orlanskiS.ckptA.002.004.data
(PID.TID 0000.0001)  MDS_READ_SEC_XZ: opening file: pickup_orlanskiS.ckptA.003.004.data
(PID.TID 0000.0001)  MDS_READ_SEC_XZ: opening file: pickup_orlanskiS.ckptA.004.004.data
(PID.TID 0000.0001)  MDS_READ_SEC_XZ: opening file: pickup_orlanskiS.ckptA.005.004.data
(PID.TID 0000.0001)  MDS_READ_SEC_XZ: opening file: pickup_orlanskiS.ckptA.006.004.data
(PID.TID 0000.0001)  MDS_READ_SEC_XZ: opening file: pickup_orlanskiS.ckptA.007.004.data
(PID.TID 0000.0001)  MDS_READ_SEC_XZ: opening file: pickup_orlanskiS.ckptA.008.004.data
(PID.TID 0000.0001)  MDS_READ_SEC_XZ: opening file: pickup_orlanskiS.ckptA.009.004.data
(PID.TID 0000.0001)  MDS_READ_SEC_XZ: opening file: pickup_orlanskiS.ckptA.010.004.data
(PID.TID 0000.0001)  MDS_READ_SEC_XZ: opening file: pickup_orlanskiS.ckptA.011.004.data
(PID.TID 0000.0001)  MDS_READ_SEC_XZ: opening file: pickup_orlanskiS.ckptA.012.004.data
(PID.TID 0000.0001)  MDS_READ_SEC_XZ: opening file: pickup_orlanskiS.ckptA.013.004.data
(PID.TID 0000.0001)  MDS_READ_SEC_XZ: opening file: pickup_orlanskiS.ckptA.014.004.data
(PID.TID 0000.0001)  MDS_READ_SEC_XZ: opening file: pickup_orlanskiS.ckptA.015.004.data
(PID.TID 0000.0001)  MDS_READ_SEC_XZ: opening file: pickup_orlanskiS.ckptA.001.005.data
(PID.TID 0000.0001)  MDS_READ_SEC_XZ: opening file: pickup_orlanskiS.ckptA.002.005.data
(PID.TID 0000.0001)  MDS_READ_SEC_XZ: opening file: pickup_orlanskiS.ckptA.003.005.data
(PID.TID 0000.0001)  MDS_READ_SEC_XZ: opening file: pickup_orlanskiS.ckptA.004.005.data
(PID.TID 0000.0001)  MDS_READ_SEC_XZ: opening file: pickup_orlanskiS.ckptA.005.005.data
(PID.TID 0000.0001)  MDS_READ_SEC_XZ: opening file: pickup_orlanskiS.ckptA.006.005.data
(PID.TID 0000.0001)  MDS_READ_SEC_XZ: opening file: pickup_orlanskiS.ckptA.007.005.data
(PID.TID 0000.0001)  MDS_READ_SEC_XZ: opening file: pickup_orlanskiS.ckptA.008.005.data
(PID.TID 0000.0001)  MDS_READ_SEC_XZ: opening file: pickup_orlanskiS.ckptA.009.005.data
(PID.TID 0000.0001)  MDS_READ_SEC_XZ: opening file: pickup_orlanskiS.ckptA.010.005.data
(PID.TID 0000.0001)  MDS_READ_SEC_XZ: opening file: pickup_orlanskiS.ckptA.011.005.data
(PID.TID 0000.0001)  MDS_READ_SEC_XZ: opening file: pickup_orlanskiS.ckptA.012.005.data
(PID.TID 0000.0001)  MDS_READ_SEC_XZ: opening file: pickup_orlanskiS.ckptA.013.005.data
(PID.TID 0000.0001)  MDS_READ_SEC_XZ: opening file: pickup_orlanskiS.ckptA.014.005.data
(PID.TID 0000.0001)  MDS_READ_SEC_XZ: opening file: pickup_orlanskiS.ckptA.015.005.data
(PID.TID 0000.0001)  MDS_READ_SEC_XZ: opening file: pickup_orlanskiS.ckptA.001.006.data
(PID.TID 0000.0001)  MDS_READ_SEC_XZ: opening file: pickup_orlanskiS.ckptA.002.006.data
(PID.TID 0000.0001)  MDS_READ_SEC_XZ: opening file: pickup_orlanskiS.ckptA.003.006.data
(PID.TID 0000.0001)  MDS_READ_SEC_XZ: opening file: pickup_orlanskiS.ckptA.004.006.data
(PID.TID 0000.0001)  MDS_READ_SEC_XZ: opening file: pickup_orlanskiS.ckptA.005.006.data
(PID.TID 0000.0001)  MDS_READ_SEC_XZ: opening file: pickup_orlanskiS.ckptA.006.006.data
(PID.TID 0000.0001)  MDS_READ_SEC_XZ: opening file: pickup_orlanskiS.ckptA.007.006.data
(PID.TID 0000.0001)  MDS_READ_SEC_XZ: opening file: pickup_orlanskiS.ckptA.008.006.data
(PID.TID 0000.0001)  MDS_READ_SEC_XZ: opening file: pickup_orlanskiS.ckptA.009.006.data
(PID.TID 0000.0001)  MDS_READ_SEC_XZ: opening file: pickup_orlanskiS.ckptA.010.006.data
(PID.TID 0000.0001)  MDS_READ_SEC_XZ: opening file: pickup_orlanskiS.ckptA.011.006.data
(PID.TID 0000.0001)  MDS_READ_SEC_XZ: opening file: pickup_orlanskiS.ckptA.012.006.data
(PID.TID 0000.0001)  MDS_READ_SEC_XZ: opening file: pickup_orlanskiS.ckptA.013.006.data
(PID.TID 0000.0001)  MDS_READ_SEC_XZ: opening file: pickup_orlanskiS.ckptA.014.006.data
(PID.TID 0000.0001)  MDS_READ_SEC_XZ: opening file: pickup_orlanskiS.ckptA.015.006.data
(PID.TID 0000.0001)  MDS_READ_SEC_XZ: opening file: pickup_orlanskiS.ckptA.001.007.data
(PID.TID 0000.0001)  MDS_READ_SEC_XZ: opening file: pickup_orlanskiS.ckptA.002.007.data
(PID.TID 0000.0001)  MDS_READ_SEC_XZ: opening file: pickup_orlanskiS.ckptA.003.007.data
(PID.TID 0000.0001)  MDS_READ_SEC_XZ: opening file: pickup_orlanskiS.ckptA.004.007.data
(PID.TID 0000.0001)  MDS_READ_SEC_XZ: opening file: pickup_orlanskiS.ckptA.005.007.data
(PID.TID 0000.0001)  MDS_READ_SEC_XZ: opening file: pickup_orlanskiS.ckptA.006.007.data
(PID.TID 0000.0001)  MDS_READ_SEC_XZ: opening file: pickup_orlanskiS.ckptA.007.007.data
(PID.TID 0000.0001)  MDS_READ_SEC_XZ: opening file: pickup_orlanskiS.ckptA.008.007.data
(PID.TID 0000.0001)  MDS_READ_SEC_XZ: opening file: pickup_orlanskiS.ckptA.009.007.data
(PID.TID 0000.0001)  MDS_READ_SEC_XZ: opening file: pickup_orlanskiS.ckptA.010.007.data
(PID.TID 0000.0001)  MDS_READ_SEC_XZ: opening file: pickup_orlanskiS.ckptA.011.007.data
(PID.TID 0000.0001)  MDS_READ_SEC_XZ: opening file: pickup_orlanskiS.ckptA.012.007.data
(PID.TID 0000.0001)  MDS_READ_SEC_XZ: opening file: pickup_orlanskiS.ckptA.013.007.data
(PID.TID 0000.0001)  MDS_READ_SEC_XZ: opening file: pickup_orlanskiS.ckptA.014.007.data
(PID.TID 0000.0001)  MDS_READ_SEC_XZ: opening file: pickup_orlanskiS.ckptA.015.007.data
(PID.TID 0000.0001)  MDS_READ_SEC_XZ: opening file: pickup_orlanskiS.ckptA.001.008.data
(PID.TID 0000.0001)  MDS_READ_SEC_XZ: opening file: pickup_orlanskiS.ckptA.002.008.data
(PID.TID 0000.0001)  MDS_READ_SEC_XZ: opening file: pickup_orlanskiS.ckptA.003.008.data
(PID.TID 0000.0001)  MDS_READ_SEC_XZ: opening file: pickup_orlanskiS.ckptA.004.008.data
(PID.TID 0000.0001)  MDS_READ_SEC_XZ: opening file: pickup_orlanskiS.ckptA.005.008.data
(PID.TID 0000.0001)  MDS_READ_SEC_XZ: opening file: pickup_orlanskiS.ckptA.006.008.data
(PID.TID 0000.0001)  MDS_READ_SEC_XZ: opening file: pickup_orlanskiS.ckptA.007.008.data
(PID.TID 0000.0001)  MDS_READ_SEC_XZ: opening file: pickup_orlanskiS.ckptA.008.008.data
(PID.TID 0000.0001)  MDS_READ_SEC_XZ: opening file: pickup_orlanskiS.ckptA.009.008.data
(PID.TID 0000.0001)  MDS_READ_SEC_XZ: opening file: pickup_orlanskiS.ckptA.010.008.data
(PID.TID 0000.0001)  MDS_READ_SEC_XZ: opening file: pickup_orlanskiS.ckptA.011.008.data
(PID.TID 0000.0001)  MDS_READ_SEC_XZ: opening file: pickup_orlanskiS.ckptA.012.008.data
(PID.TID 0000.0001)  MDS_READ_SEC_XZ: opening file: pickup_orlanskiS.ckptA.013.008.data
(PID.TID 0000.0001)  MDS_READ_SEC_XZ: opening file: pickup_orlanskiS.ckptA.014.008.data
(PID.TID 0000.0001)  MDS_READ_SEC_XZ: opening file: pickup_orlanskiS.ckptA.015.008.data
(PID.TID 0000.0001)  MDS_READ_SEC_XZ: opening file: pickup_orlanskiS.ckptA.001.009.data
(PID.TID 0000.0001)  MDS_READ_SEC_XZ: opening file: pickup_orlanskiS.ckptA.002.009.data
(PID.TID 0000.0001)  MDS_READ_SEC_XZ: opening file: pickup_orlanskiS.ckptA.003.009.data
(PID.TID 0000.0001)  MDS_READ_SEC_XZ: opening file: pickup_orlanskiS.ckptA.004.009.data
(PID.TID 0000.0001)  MDS_READ_SEC_XZ: opening file: pickup_orlanskiS.ckptA.005.009.data
(PID.TID 0000.0001)  MDS_READ_SEC_XZ: opening file: pickup_orlanskiS.ckptA.006.009.data
(PID.TID 0000.0001)  MDS_READ_SEC_XZ: opening file: pickup_orlanskiS.ckptA.007.009.data
(PID.TID 0000.0001)  MDS_READ_SEC_XZ: opening file: pickup_orlanskiS.ckptA.008.009.data
(PID.TID 0000.0001)  MDS_READ_SEC_XZ: opening file: pickup_orlanskiS.ckptA.009.009.data
(PID.TID 0000.0001)  MDS_READ_SEC_XZ: opening file: pickup_orlanskiS.ckptA.010.009.data
(PID.TID 0000.0001)  MDS_READ_SEC_XZ: opening file: pickup_orlanskiS.ckptA.011.009.data
(PID.TID 0000.0001)  MDS_READ_SEC_XZ: opening file: pickup_orlanskiS.ckptA.012.009.data
(PID.TID 0000.0001)  MDS_READ_SEC_XZ: opening file: pickup_orlanskiS.ckptA.013.009.data
(PID.TID 0000.0001)  MDS_READ_SEC_XZ: opening file: pickup_orlanskiS.ckptA.014.009.data
(PID.TID 0000.0001)  MDS_READ_SEC_XZ: opening file: pickup_orlanskiS.ckptA.015.009.data
(PID.TID 0000.0001)  MDS_READ_SEC_XZ: opening file: pickup_orlanskiS.ckptA.001.010.data
(PID.TID 0000.0001)  MDS_READ_SEC_XZ: opening file: pickup_orlanskiS.ckptA.002.010.data
(PID.TID 0000.0001)  MDS_READ_SEC_XZ: opening file: pickup_orlanskiS.ckptA.003.010.data
(PID.TID 0000.0001)  MDS_READ_SEC_XZ: opening file: pickup_orlanskiS.ckptA.004.010.data
(PID.TID 0000.0001)  MDS_READ_SEC_XZ: opening file: pickup_orlanskiS.ckptA.005.010.data
(PID.TID 0000.0001)  MDS_READ_SEC_XZ: opening file: pickup_orlanskiS.ckptA.006.010.data
(PID.TID 0000.0001)  MDS_READ_SEC_XZ: opening file: pickup_orlanskiS.ckptA.007.010.data
(PID.TID 0000.0001)  MDS_READ_SEC_XZ: opening file: pickup_orlanskiS.ckptA.008.010.data
(PID.TID 0000.0001)  MDS_READ_SEC_XZ: opening file: pickup_orlanskiS.ckptA.009.010.data
(PID.TID 0000.0001)  MDS_READ_SEC_XZ: opening file: pickup_orlanskiS.ckptA.010.010.data
(PID.TID 0000.0001)  MDS_READ_SEC_XZ: opening file: pickup_orlanskiS.ckptA.011.010.data
(PID.TID 0000.0001)  MDS_READ_SEC_XZ: opening file: pickup_orlanskiS.ckptA.012.010.data
(PID.TID 0000.0001)  MDS_READ_SEC_XZ: opening file: pickup_orlanskiS.ckptA.013.010.data
(PID.TID 0000.0001)  MDS_READ_SEC_XZ: opening file: pickup_orlanskiS.ckptA.014.010.data
(PID.TID 0000.0001)  MDS_READ_SEC_XZ: opening file: pickup_orlanskiS.ckptA.015.010.data
(PID.TID 0000.0001)  MDS_READ_SEC_XZ: opening file: pickup_orlanskiS.ckptA.001.011.data
(PID.TID 0000.0001)  MDS_READ_SEC_XZ: opening file: pickup_orlanskiS.ckptA.002.011.data
(PID.TID 0000.0001)  MDS_READ_SEC_XZ: opening file: pickup_orlanskiS.ckptA.003.011.data
(PID.TID 0000.0001)  MDS_READ_SEC_XZ: opening file: pickup_orlanskiS.ckptA.004.011.data
(PID.TID 0000.0001)  MDS_READ_SEC_XZ: opening file: pickup_orlanskiS.ckptA.005.011.data
(PID.TID 0000.0001)  MDS_READ_SEC_XZ: opening file: pickup_orlanskiS.ckptA.006.011.data
(PID.TID 0000.0001)  MDS_READ_SEC_XZ: opening file: pickup_orlanskiS.ckptA.007.011.data
(PID.TID 0000.0001)  MDS_READ_SEC_XZ: opening file: pickup_orlanskiS.ckptA.008.011.data
(PID.TID 0000.0001)  MDS_READ_SEC_XZ: opening file: pickup_orlanskiS.ckptA.009.011.data
(PID.TID 0000.0001)  MDS_READ_SEC_XZ: opening file: pickup_orlanskiS.ckptA.010.011.data
(PID.TID 0000.0001)  MDS_READ_SEC_XZ: opening file: pickup_orlanskiS.ckptA.011.011.data
(PID.TID 0000.0001)  MDS_READ_SEC_XZ: opening file: pickup_orlanskiS.ckptA.012.011.data
(PID.TID 0000.0001)  MDS_READ_SEC_XZ: opening file: pickup_orlanskiS.ckptA.013.011.data
(PID.TID 0000.0001)  MDS_READ_SEC_XZ: opening file: pickup_orlanskiS.ckptA.014.011.data
(PID.TID 0000.0001)  MDS_READ_SEC_XZ: opening file: pickup_orlanskiS.ckptA.015.011.data
(PID.TID 0000.0001)  MDS_READ_SEC_XZ: opening file: pickup_orlanskiS.ckptA.001.012.data
(PID.TID 0000.0001)  MDS_READ_SEC_XZ: opening file: pickup_orlanskiS.ckptA.002.012.data
(PID.TID 0000.0001)  MDS_READ_SEC_XZ: opening file: pickup_orlanskiS.ckptA.003.012.data
(PID.TID 0000.0001)  MDS_READ_SEC_XZ: opening file: pickup_orlanskiS.ckptA.004.012.data
(PID.TID 0000.0001)  MDS_READ_SEC_XZ: opening file: pickup_orlanskiS.ckptA.005.012.data
(PID.TID 0000.0001)  MDS_READ_SEC_XZ: opening file: pickup_orlanskiS.ckptA.006.012.data
(PID.TID 0000.0001)  MDS_READ_SEC_XZ: opening file: pickup_orlanskiS.ckptA.007.012.data
(PID.TID 0000.0001)  MDS_READ_SEC_XZ: opening file: pickup_orlanskiS.ckptA.008.012.data
(PID.TID 0000.0001)  MDS_READ_SEC_XZ: opening file: pickup_orlanskiS.ckptA.009.012.data
(PID.TID 0000.0001)  MDS_READ_SEC_XZ: opening file: pickup_orlanskiS.ckptA.010.012.data
(PID.TID 0000.0001)  MDS_READ_SEC_XZ: opening file: pickup_orlanskiS.ckptA.011.012.data
(PID.TID 0000.0001)  MDS_READ_SEC_XZ: opening file: pickup_orlanskiS.ckptA.012.012.data
(PID.TID 0000.0001)  MDS_READ_SEC_XZ: opening file: pickup_orlanskiS.ckptA.013.012.data
(PID.TID 0000.0001)  MDS_READ_SEC_XZ: opening file: pickup_orlanskiS.ckptA.014.012.data
(PID.TID 0000.0001)  MDS_READ_SEC_XZ: opening file: pickup_orlanskiS.ckptA.015.012.data
(PID.TID 0000.0001)  MDS_READ_SEC_XZ: opening file: pickup_orlanskiS.ckptA.001.013.data
(PID.TID 0000.0001)  MDS_READ_SEC_XZ: opening file: pickup_orlanskiS.ckptA.002.013.data
(PID.TID 0000.0001)  MDS_READ_SEC_XZ: opening file: pickup_orlanskiS.ckptA.003.013.data
(PID.TID 0000.0001)  MDS_READ_SEC_XZ: opening file: pickup_orlanskiS.ckptA.004.013.data
(PID.TID 0000.0001)  MDS_READ_SEC_XZ: opening file: pickup_orlanskiS.ckptA.005.013.data
(PID.TID 0000.0001)  MDS_READ_SEC_XZ: opening file: pickup_orlanskiS.ckptA.006.013.data
(PID.TID 0000.0001)  MDS_READ_SEC_XZ: opening file: pickup_orlanskiS.ckptA.007.013.data
(PID.TID 0000.0001)  MDS_READ_SEC_XZ: opening file: pickup_orlanskiS.ckptA.008.013.data
(PID.TID 0000.0001)  MDS_READ_SEC_XZ: opening file: pickup_orlanskiS.ckptA.009.013.data
(PID.TID 0000.0001)  MDS_READ_SEC_XZ: opening file: pickup_orlanskiS.ckptA.010.013.data
(PID.TID 0000.0001)  MDS_READ_SEC_XZ: opening file: pickup_orlanskiS.ckptA.011.013.data
(PID.TID 0000.0001)  MDS_READ_SEC_XZ: opening file: pickup_orlanskiS.ckptA.012.013.data
(PID.TID 0000.0001)  MDS_READ_SEC_XZ: opening file: pickup_orlanskiS.ckptA.013.013.data
(PID.TID 0000.0001)  MDS_READ_SEC_XZ: opening file: pickup_orlanskiS.ckptA.014.013.data
(PID.TID 0000.0001)  MDS_READ_SEC_XZ: opening file: pickup_orlanskiS.ckptA.015.013.data
(PID.TID 0000.0001)  MDS_READ_SEC_XZ: opening file: pickup_orlanskiS.ckptA.001.014.data
(PID.TID 0000.0001)  MDS_READ_SEC_XZ: opening file: pickup_orlanskiS.ckptA.002.014.data
(PID.TID 0000.0001)  MDS_READ_SEC_XZ: opening file: pickup_orlanskiS.ckptA.003.014.data
(PID.TID 0000.0001)  MDS_READ_SEC_XZ: opening file: pickup_orlanskiS.ckptA.004.014.data
(PID.TID 0000.0001)  MDS_READ_SEC_XZ: opening file: pickup_orlanskiS.ckptA.005.014.data
(PID.TID 0000.0001)  MDS_READ_SEC_XZ: opening file: pickup_orlanskiS.ckptA.006.014.data
(PID.TID 0000.0001)  MDS_READ_SEC_XZ: opening file: pickup_orlanskiS.ckptA.007.014.data
(PID.TID 0000.0001)  MDS_READ_SEC_XZ: opening file: pickup_orlanskiS.ckptA.008.014.data
(PID.TID 0000.0001)  MDS_READ_SEC_XZ: opening file: pickup_orlanskiS.ckptA.009.014.data
(PID.TID 0000.0001)  MDS_READ_SEC_XZ: opening file: pickup_orlanskiS.ckptA.010.014.data
(PID.TID 0000.0001)  MDS_READ_SEC_XZ: opening file: pickup_orlanskiS.ckptA.011.014.data
(PID.TID 0000.0001)  MDS_READ_SEC_XZ: opening file: pickup_orlanskiS.ckptA.012.014.data
(PID.TID 0000.0001)  MDS_READ_SEC_XZ: opening file: pickup_orlanskiS.ckptA.013.014.data
(PID.TID 0000.0001)  MDS_READ_SEC_XZ: opening file: pickup_orlanskiS.ckptA.014.014.data
(PID.TID 0000.0001)  MDS_READ_SEC_XZ: opening file: pickup_orlanskiS.ckptA.015.014.data
(PID.TID 0000.0001)  MDS_READ_SEC_XZ: opening file: pickup_orlanskiS.ckptA.001.015.data
(PID.TID 0000.0001)  MDS_READ_SEC_XZ: opening file: pickup_orlanskiS.ckptA.002.015.data
(PID.TID 0000.0001)  MDS_READ_SEC_XZ: opening file: pickup_orlanskiS.ckptA.003.015.data
(PID.TID 0000.0001)  MDS_READ_SEC_XZ: opening file: pickup_orlanskiS.ckptA.004.015.data
(PID.TID 0000.0001)  MDS_READ_SEC_XZ: opening file: pickup_orlanskiS.ckptA.005.015.data
(PID.TID 0000.0001)  MDS_READ_SEC_XZ: opening file: pickup_orlanskiS.ckptA.006.015.data
(PID.TID 0000.0001)  MDS_READ_SEC_XZ: opening file: pickup_orlanskiS.ckptA.007.015.data
(PID.TID 0000.0001)  MDS_READ_SEC_XZ: opening file: pickup_orlanskiS.ckptA.008.015.data
(PID.TID 0000.0001)  MDS_READ_SEC_XZ: opening file: pickup_orlanskiS.ckptA.009.015.data
(PID.TID 0000.0001)  MDS_READ_SEC_XZ: opening file: pickup_orlanskiS.ckptA.010.015.data
(PID.TID 0000.0001)  MDS_READ_SEC_XZ: opening file: pickup_orlanskiS.ckptA.011.015.data
(PID.TID 0000.0001)  MDS_READ_SEC_XZ: opening file: pickup_orlanskiS.ckptA.012.015.data
(PID.TID 0000.0001)  MDS_READ_SEC_XZ: opening file: pickup_orlanskiS.ckptA.013.015.data
(PID.TID 0000.0001)  MDS_READ_SEC_XZ: opening file: pickup_orlanskiS.ckptA.014.015.data
(PID.TID 0000.0001)  MDS_READ_SEC_XZ: opening file: pickup_orlanskiS.ckptA.015.015.data
(PID.TID 0000.0001)  MDS_READ_SEC_XZ: opening file: pickup_orlanskiS.ckptA.001.001.data
(PID.TID 0000.0001)  MDS_READ_SEC_XZ: opening file: pickup_orlanskiS.ckptA.002.001.data
(PID.TID 0000.0001)  MDS_READ_SEC_XZ: opening file: pickup_orlanskiS.ckptA.003.001.data
(PID.TID 0000.0001)  MDS_READ_SEC_XZ: opening file: pickup_orlanskiS.ckptA.004.001.data
(PID.TID 0000.0001)  MDS_READ_SEC_XZ: opening file: pickup_orlanskiS.ckptA.005.001.data
(PID.TID 0000.0001)  MDS_READ_SEC_XZ: opening file: pickup_orlanskiS.ckptA.006.001.data
(PID.TID 0000.0001)  MDS_READ_SEC_XZ: opening file: pickup_orlanskiS.ckptA.007.001.data
(PID.TID 0000.0001)  MDS_READ_SEC_XZ: opening file: pickup_orlanskiS.ckptA.008.001.data
(PID.TID 0000.0001)  MDS_READ_SEC_XZ: opening file: pickup_orlanskiS.ckptA.009.001.data
(PID.TID 0000.0001)  MDS_READ_SEC_XZ: opening file: pickup_orlanskiS.ckptA.010.001.data
(PID.TID 0000.0001)  MDS_READ_SEC_XZ: opening file: pickup_orlanskiS.ckptA.011.001.data
(PID.TID 0000.0001)  MDS_READ_SEC_XZ: opening file: pickup_orlanskiS.ckptA.012.001.data
(PID.TID 0000.0001)  MDS_READ_SEC_XZ: opening file: pickup_orlanskiS.ckptA.013.001.data
(PID.TID 0000.0001)  MDS_READ_SEC_XZ: opening file: pickup_orlanskiS.ckptA.014.001.data
(PID.TID 0000.0001)  MDS_READ_SEC_XZ: opening file: pickup_orlanskiS.ckptA.015.001.data
(PID.TID 0000.0001)  MDS_READ_SEC_XZ: opening file: pickup_orlanskiS.ckptA.001.002.data
(PID.TID 0000.0001)  MDS_READ_SEC_XZ: opening file: pickup_orlanskiS.ckptA.002.002.data
(PID.TID 0000.0001)  MDS_READ_SEC_XZ: opening file: pickup_orlanskiS.ckptA.003.002.data
(PID.TID 0000.0001)  MDS_READ_SEC_XZ: opening file: pickup_orlanskiS.ckptA.004.002.data
(PID.TID 0000.0001)  MDS_READ_SEC_XZ: opening file: pickup_orlanskiS.ckptA.005.002.data
(PID.TID 0000.0001)  MDS_READ_SEC_XZ: opening file: pickup_orlanskiS.ckptA.006.002.data
(PID.TID 0000.0001)  MDS_READ_SEC_XZ: opening file: pickup_orlanskiS.ckptA.007.002.data
(PID.TID 0000.0001)  MDS_READ_SEC_XZ: opening file: pickup_orlanskiS.ckptA.008.002.data
(PID.TID 0000.0001)  MDS_READ_SEC_XZ: opening file: pickup_orlanskiS.ckptA.009.002.data
(PID.TID 0000.0001)  MDS_READ_SEC_XZ: opening file: pickup_orlanskiS.ckptA.010.002.data
(PID.TID 0000.0001)  MDS_READ_SEC_XZ: opening file: pickup_orlanskiS.ckptA.011.002.data
(PID.TID 0000.0001)  MDS_READ_SEC_XZ: opening file: pickup_orlanskiS.ckptA.012.002.data
(PID.TID 0000.0001)  MDS_READ_SEC_XZ: opening file: pickup_orlanskiS.ckptA.013.002.data
(PID.TID 0000.0001)  MDS_READ_SEC_XZ: opening file: pickup_orlanskiS.ckptA.014.002.data
(PID.TID 0000.0001)  MDS_READ_SEC_XZ: opening file: pickup_orlanskiS.ckptA.015.002.data
(PID.TID 0000.0001)  MDS_READ_SEC_XZ: opening file: pickup_orlanskiS.ckptA.001.003.data
(PID.TID 0000.0001)  MDS_READ_SEC_XZ: opening file: pickup_orlanskiS.ckptA.002.003.data
(PID.TID 0000.0001)  MDS_READ_SEC_XZ: opening file: pickup_orlanskiS.ckptA.003.003.data
(PID.TID 0000.0001)  MDS_READ_SEC_XZ: opening file: pickup_orlanskiS.ckptA.004.003.data
(PID.TID 0000.0001)  MDS_READ_SEC_XZ: opening file: pickup_orlanskiS.ckptA.005.003.data
(PID.TID 0000.0001)  MDS_READ_SEC_XZ: opening file: pickup_orlanskiS.ckptA.006.003.data
(PID.TID 0000.0001)  MDS_READ_SEC_XZ: opening file: pickup_orlanskiS.ckptA.007.003.data
(PID.TID 0000.0001)  MDS_READ_SEC_XZ: opening file: pickup_orlanskiS.ckptA.008.003.data
(PID.TID 0000.0001)  MDS_READ_SEC_XZ: opening file: pickup_orlanskiS.ckptA.009.003.data
(PID.TID 0000.0001)  MDS_READ_SEC_XZ: opening file: pickup_orlanskiS.ckptA.010.003.data
(PID.TID 0000.0001)  MDS_READ_SEC_XZ: opening file: pickup_orlanskiS.ckptA.011.003.data
(PID.TID 0000.0001)  MDS_READ_SEC_XZ: opening file: pickup_orlanskiS.ckptA.012.003.data
(PID.TID 0000.0001)  MDS_READ_SEC_XZ: opening file: pickup_orlanskiS.ckptA.013.003.data
(PID.TID 0000.0001)  MDS_READ_SEC_XZ: opening file: pickup_orlanskiS.ckptA.014.003.data
(PID.TID 0000.0001)  MDS_READ_SEC_XZ: opening file: pickup_orlanskiS.ckptA.015.003.data
(PID.TID 0000.0001)  MDS_READ_SEC_XZ: opening file: pickup_orlanskiS.ckptA.001.004.data
(PID.TID 0000.0001)  MDS_READ_SEC_XZ: opening file: pickup_orlanskiS.ckptA.002.004.data
(PID.TID 0000.0001)  MDS_READ_SEC_XZ: opening file: pickup_orlanskiS.ckptA.003.004.data
(PID.TID 0000.0001)  MDS_READ_SEC_XZ: opening file: pickup_orlanskiS.ckptA.004.004.data
(PID.TID 0000.0001)  MDS_READ_SEC_XZ: opening file: pickup_orlanskiS.ckptA.005.004.data
(PID.TID 0000.0001)  MDS_READ_SEC_XZ: opening file: pickup_orlanskiS.ckptA.006.004.data
(PID.TID 0000.0001)  MDS_READ_SEC_XZ: opening file: pickup_orlanskiS.ckptA.007.004.data
(PID.TID 0000.0001)  MDS_READ_SEC_XZ: opening file: pickup_orlanskiS.ckptA.008.004.data
(PID.TID 0000.0001)  MDS_READ_SEC_XZ: opening file: pickup_orlanskiS.ckptA.009.004.data
(PID.TID 0000.0001)  MDS_READ_SEC_XZ: opening file: pickup_orlanskiS.ckptA.010.004.data
(PID.TID 0000.0001)  MDS_READ_SEC_XZ: opening file: pickup_orlanskiS.ckptA.011.004.data
(PID.TID 0000.0001)  MDS_READ_SEC_XZ: opening file: pickup_orlanskiS.ckptA.012.004.data
(PID.TID 0000.0001)  MDS_READ_SEC_XZ: opening file: pickup_orlanskiS.ckptA.013.004.data
(PID.TID 0000.0001)  MDS_READ_SEC_XZ: opening file: pickup_orlanskiS.ckptA.014.004.data
(PID.TID 0000.0001)  MDS_READ_SEC_XZ: opening file: pickup_orlanskiS.ckptA.015.004.data
(PID.TID 0000.0001)  MDS_READ_SEC_XZ: opening file: pickup_orlanskiS.ckptA.001.005.data
(PID.TID 0000.0001)  MDS_READ_SEC_XZ: opening file: pickup_orlanskiS.ckptA.002.005.data
(PID.TID 0000.0001)  MDS_READ_SEC_XZ: opening file: pickup_orlanskiS.ckptA.003.005.data
(PID.TID 0000.0001)  MDS_READ_SEC_XZ: opening file: pickup_orlanskiS.ckptA.004.005.data
(PID.TID 0000.0001)  MDS_READ_SEC_XZ: opening file: pickup_orlanskiS.ckptA.005.005.data
(PID.TID 0000.0001)  MDS_READ_SEC_XZ: opening file: pickup_orlanskiS.ckptA.006.005.data
(PID.TID 0000.0001)  MDS_READ_SEC_XZ: opening file: pickup_orlanskiS.ckptA.007.005.data
(PID.TID 0000.0001)  MDS_READ_SEC_XZ: opening file: pickup_orlanskiS.ckptA.008.005.data
(PID.TID 0000.0001)  MDS_READ_SEC_XZ: opening file: pickup_orlanskiS.ckptA.009.005.data
(PID.TID 0000.0001)  MDS_READ_SEC_XZ: opening file: pickup_orlanskiS.ckptA.010.005.data
(PID.TID 0000.0001)  MDS_READ_SEC_XZ: opening file: pickup_orlanskiS.ckptA.011.005.data
(PID.TID 0000.0001)  MDS_READ_SEC_XZ: opening file: pickup_orlanskiS.ckptA.012.005.data
(PID.TID 0000.0001)  MDS_READ_SEC_XZ: opening file: pickup_orlanskiS.ckptA.013.005.data
(PID.TID 0000.0001)  MDS_READ_SEC_XZ: opening file: pickup_orlanskiS.ckptA.014.005.data
(PID.TID 0000.0001)  MDS_READ_SEC_XZ: opening file: pickup_orlanskiS.ckptA.015.005.data
(PID.TID 0000.0001)  MDS_READ_SEC_XZ: opening file: pickup_orlanskiS.ckptA.001.006.data
(PID.TID 0000.0001)  MDS_READ_SEC_XZ: opening file: pickup_orlanskiS.ckptA.002.006.data
(PID.TID 0000.0001)  MDS_READ_SEC_XZ: opening file: pickup_orlanskiS.ckptA.003.006.data
(PID.TID 0000.0001)  MDS_READ_SEC_XZ: opening file: pickup_orlanskiS.ckptA.004.006.data
(PID.TID 0000.0001)  MDS_READ_SEC_XZ: opening file: pickup_orlanskiS.ckptA.005.006.data
(PID.TID 0000.0001)  MDS_READ_SEC_XZ: opening file: pickup_orlanskiS.ckptA.006.006.data
(PID.TID 0000.0001)  MDS_READ_SEC_XZ: opening file: pickup_orlanskiS.ckptA.007.006.data
(PID.TID 0000.0001)  MDS_READ_SEC_XZ: opening file: pickup_orlanskiS.ckptA.008.006.data
(PID.TID 0000.0001)  MDS_READ_SEC_XZ: opening file: pickup_orlanskiS.ckptA.009.006.data
(PID.TID 0000.0001)  MDS_READ_SEC_XZ: opening file: pickup_orlanskiS.ckptA.010.006.data
(PID.TID 0000.0001)  MDS_READ_SEC_XZ: opening file: pickup_orlanskiS.ckptA.011.006.data
(PID.TID 0000.0001)  MDS_READ_SEC_XZ: opening file: pickup_orlanskiS.ckptA.012.006.data
(PID.TID 0000.0001)  MDS_READ_SEC_XZ: opening file: pickup_orlanskiS.ckptA.013.006.data
(PID.TID 0000.0001)  MDS_READ_SEC_XZ: opening file: pickup_orlanskiS.ckptA.014.006.data
(PID.TID 0000.0001)  MDS_READ_SEC_XZ: opening file: pickup_orlanskiS.ckptA.015.006.data
(PID.TID 0000.0001)  MDS_READ_SEC_XZ: opening file: pickup_orlanskiS.ckptA.001.007.data
(PID.TID 0000.0001)  MDS_READ_SEC_XZ: opening file: pickup_orlanskiS.ckptA.002.007.data
(PID.TID 0000.0001)  MDS_READ_SEC_XZ: opening file: pickup_orlanskiS.ckptA.003.007.data
(PID.TID 0000.0001)  MDS_READ_SEC_XZ: opening file: pickup_orlanskiS.ckptA.004.007.data
(PID.TID 0000.0001)  MDS_READ_SEC_XZ: opening file: pickup_orlanskiS.ckptA.005.007.data
(PID.TID 0000.0001)  MDS_READ_SEC_XZ: opening file: pickup_orlanskiS.ckptA.006.007.data
(PID.TID 0000.0001)  MDS_READ_SEC_XZ: opening file: pickup_orlanskiS.ckptA.007.007.data
(PID.TID 0000.0001)  MDS_READ_SEC_XZ: opening file: pickup_orlanskiS.ckptA.008.007.data
(PID.TID 0000.0001)  MDS_READ_SEC_XZ: opening file: pickup_orlanskiS.ckptA.009.007.data
(PID.TID 0000.0001)  MDS_READ_SEC_XZ: opening file: pickup_orlanskiS.ckptA.010.007.data
(PID.TID 0000.0001)  MDS_READ_SEC_XZ: opening file: pickup_orlanskiS.ckptA.011.007.data
(PID.TID 0000.0001)  MDS_READ_SEC_XZ: opening file: pickup_orlanskiS.ckptA.012.007.data
(PID.TID 0000.0001)  MDS_READ_SEC_XZ: opening file: pickup_orlanskiS.ckptA.013.007.data
(PID.TID 0000.0001)  MDS_READ_SEC_XZ: opening file: pickup_orlanskiS.ckptA.014.007.data
(PID.TID 0000.0001)  MDS_READ_SEC_XZ: opening file: pickup_orlanskiS.ckptA.015.007.data
(PID.TID 0000.0001)  MDS_READ_SEC_XZ: opening file: pickup_orlanskiS.ckptA.001.008.data
(PID.TID 0000.0001)  MDS_READ_SEC_XZ: opening file: pickup_orlanskiS.ckptA.002.008.data
(PID.TID 0000.0001)  MDS_READ_SEC_XZ: opening file: pickup_orlanskiS.ckptA.003.008.data
(PID.TID 0000.0001)  MDS_READ_SEC_XZ: opening file: pickup_orlanskiS.ckptA.004.008.data
(PID.TID 0000.0001)  MDS_READ_SEC_XZ: opening file: pickup_orlanskiS.ckptA.005.008.data
(PID.TID 0000.0001)  MDS_READ_SEC_XZ: opening file: pickup_orlanskiS.ckptA.006.008.data
(PID.TID 0000.0001)  MDS_READ_SEC_XZ: opening file: pickup_orlanskiS.ckptA.007.008.data
(PID.TID 0000.0001)  MDS_READ_SEC_XZ: opening file: pickup_orlanskiS.ckptA.008.008.data
(PID.TID 0000.0001)  MDS_READ_SEC_XZ: opening file: pickup_orlanskiS.ckptA.009.008.data
(PID.TID 0000.0001)  MDS_READ_SEC_XZ: opening file: pickup_orlanskiS.ckptA.010.008.data
(PID.TID 0000.0001)  MDS_READ_SEC_XZ: opening file: pickup_orlanskiS.ckptA.011.008.data
(PID.TID 0000.0001)  MDS_READ_SEC_XZ: opening file: pickup_orlanskiS.ckptA.012.008.data
(PID.TID 0000.0001)  MDS_READ_SEC_XZ: opening file: pickup_orlanskiS.ckptA.013.008.data
(PID.TID 0000.0001)  MDS_READ_SEC_XZ: opening file: pickup_orlanskiS.ckptA.014.008.data
(PID.TID 0000.0001)  MDS_READ_SEC_XZ: opening file: pickup_orlanskiS.ckptA.015.008.data
(PID.TID 0000.0001)  MDS_READ_SEC_XZ: opening file: pickup_orlanskiS.ckptA.001.009.data
(PID.TID 0000.0001)  MDS_READ_SEC_XZ: opening file: pickup_orlanskiS.ckptA.002.009.data
(PID.TID 0000.0001)  MDS_READ_SEC_XZ: opening file: pickup_orlanskiS.ckptA.003.009.data
(PID.TID 0000.0001)  MDS_READ_SEC_XZ: opening file: pickup_orlanskiS.ckptA.004.009.data
(PID.TID 0000.0001)  MDS_READ_SEC_XZ: opening file: pickup_orlanskiS.ckptA.005.009.data
(PID.TID 0000.0001)  MDS_READ_SEC_XZ: opening file: pickup_orlanskiS.ckptA.006.009.data
(PID.TID 0000.0001)  MDS_READ_SEC_XZ: opening file: pickup_orlanskiS.ckptA.007.009.data
(PID.TID 0000.0001)  MDS_READ_SEC_XZ: opening file: pickup_orlanskiS.ckptA.008.009.data
(PID.TID 0000.0001)  MDS_READ_SEC_XZ: opening file: pickup_orlanskiS.ckptA.009.009.data
(PID.TID 0000.0001)  MDS_READ_SEC_XZ: opening file: pickup_orlanskiS.ckptA.010.009.data
(PID.TID 0000.0001)  MDS_READ_SEC_XZ: opening file: pickup_orlanskiS.ckptA.011.009.data
(PID.TID 0000.0001)  MDS_READ_SEC_XZ: opening file: pickup_orlanskiS.ckptA.012.009.data
(PID.TID 0000.0001)  MDS_READ_SEC_XZ: opening file: pickup_orlanskiS.ckptA.013.009.data
(PID.TID 0000.0001)  MDS_READ_SEC_XZ: opening file: pickup_orlanskiS.ckptA.014.009.data
(PID.TID 0000.0001)  MDS_READ_SEC_XZ: opening file: pickup_orlanskiS.ckptA.015.009.data
(PID.TID 0000.0001)  MDS_READ_SEC_XZ: opening file: pickup_orlanskiS.ckptA.001.010.data
(PID.TID 0000.0001)  MDS_READ_SEC_XZ: opening file: pickup_orlanskiS.ckptA.002.010.data
(PID.TID 0000.0001)  MDS_READ_SEC_XZ: opening file: pickup_orlanskiS.ckptA.003.010.data
(PID.TID 0000.0001)  MDS_READ_SEC_XZ: opening file: pickup_orlanskiS.ckptA.004.010.data
(PID.TID 0000.0001)  MDS_READ_SEC_XZ: opening file: pickup_orlanskiS.ckptA.005.010.data
(PID.TID 0000.0001)  MDS_READ_SEC_XZ: opening file: pickup_orlanskiS.ckptA.006.010.data
(PID.TID 0000.0001)  MDS_READ_SEC_XZ: opening file: pickup_orlanskiS.ckptA.007.010.data
(PID.TID 0000.0001)  MDS_READ_SEC_XZ: opening file: pickup_orlanskiS.ckptA.008.010.data
(PID.TID 0000.0001)  MDS_READ_SEC_XZ: opening file: pickup_orlanskiS.ckptA.009.010.data
(PID.TID 0000.0001)  MDS_READ_SEC_XZ: opening file: pickup_orlanskiS.ckptA.010.010.data
(PID.TID 0000.0001)  MDS_READ_SEC_XZ: opening file: pickup_orlanskiS.ckptA.011.010.data
(PID.TID 0000.0001)  MDS_READ_SEC_XZ: opening file: pickup_orlanskiS.ckptA.012.010.data
(PID.TID 0000.0001)  MDS_READ_SEC_XZ: opening file: pickup_orlanskiS.ckptA.013.010.data
(PID.TID 0000.0001)  MDS_READ_SEC_XZ: opening file: pickup_orlanskiS.ckptA.014.010.data
(PID.TID 0000.0001)  MDS_READ_SEC_XZ: opening file: pickup_orlanskiS.ckptA.015.010.data
(PID.TID 0000.0001)  MDS_READ_SEC_XZ: opening file: pickup_orlanskiS.ckptA.001.011.data
(PID.TID 0000.0001)  MDS_READ_SEC_XZ: opening file: pickup_orlanskiS.ckptA.002.011.data
(PID.TID 0000.0001)  MDS_READ_SEC_XZ: opening file: pickup_orlanskiS.ckptA.003.011.data
(PID.TID 0000.0001)  MDS_READ_SEC_XZ: opening file: pickup_orlanskiS.ckptA.004.011.data
(PID.TID 0000.0001)  MDS_READ_SEC_XZ: opening file: pickup_orlanskiS.ckptA.005.011.data
(PID.TID 0000.0001)  MDS_READ_SEC_XZ: opening file: pickup_orlanskiS.ckptA.006.011.data
(PID.TID 0000.0001)  MDS_READ_SEC_XZ: opening file: pickup_orlanskiS.ckptA.007.011.data
(PID.TID 0000.0001)  MDS_READ_SEC_XZ: opening file: pickup_orlanskiS.ckptA.008.011.data
(PID.TID 0000.0001)  MDS_READ_SEC_XZ: opening file: pickup_orlanskiS.ckptA.009.011.data
(PID.TID 0000.0001)  MDS_READ_SEC_XZ: opening file: pickup_orlanskiS.ckptA.010.011.data
(PID.TID 0000.0001)  MDS_READ_SEC_XZ: opening file: pickup_orlanskiS.ckptA.011.011.data
(PID.TID 0000.0001)  MDS_READ_SEC_XZ: opening file: pickup_orlanskiS.ckptA.012.011.data
(PID.TID 0000.0001)  MDS_READ_SEC_XZ: opening file: pickup_orlanskiS.ckptA.013.011.data
(PID.TID 0000.0001)  MDS_READ_SEC_XZ: opening file: pickup_orlanskiS.ckptA.014.011.data
(PID.TID 0000.0001)  MDS_READ_SEC_XZ: opening file: pickup_orlanskiS.ckptA.015.011.data
(PID.TID 0000.0001)  MDS_READ_SEC_XZ: opening file: pickup_orlanskiS.ckptA.001.012.data
(PID.TID 0000.0001)  MDS_READ_SEC_XZ: opening file: pickup_orlanskiS.ckptA.002.012.data
(PID.TID 0000.0001)  MDS_READ_SEC_XZ: opening file: pickup_orlanskiS.ckptA.003.012.data
(PID.TID 0000.0001)  MDS_READ_SEC_XZ: opening file: pickup_orlanskiS.ckptA.004.012.data
(PID.TID 0000.0001)  MDS_READ_SEC_XZ: opening file: pickup_orlanskiS.ckptA.005.012.data
(PID.TID 0000.0001)  MDS_READ_SEC_XZ: opening file: pickup_orlanskiS.ckptA.006.012.data
(PID.TID 0000.0001)  MDS_READ_SEC_XZ: opening file: pickup_orlanskiS.ckptA.007.012.data
(PID.TID 0000.0001)  MDS_READ_SEC_XZ: opening file: pickup_orlanskiS.ckptA.008.012.data
(PID.TID 0000.0001)  MDS_READ_SEC_XZ: opening file: pickup_orlanskiS.ckptA.009.012.data
(PID.TID 0000.0001)  MDS_READ_SEC_XZ: opening file: pickup_orlanskiS.ckptA.010.012.data
(PID.TID 0000.0001)  MDS_READ_SEC_XZ: opening file: pickup_orlanskiS.ckptA.011.012.data
(PID.TID 0000.0001)  MDS_READ_SEC_XZ: opening file: pickup_orlanskiS.ckptA.012.012.data
(PID.TID 0000.0001)  MDS_READ_SEC_XZ: opening file: pickup_orlanskiS.ckptA.013.012.data
(PID.TID 0000.0001)  MDS_READ_SEC_XZ: opening file: pickup_orlanskiS.ckptA.014.012.data
(PID.TID 0000.0001)  MDS_READ_SEC_XZ: opening file: pickup_orlanskiS.ckptA.015.012.data
(PID.TID 0000.0001)  MDS_READ_SEC_XZ: opening file: pickup_orlanskiS.ckptA.001.013.data
(PID.TID 0000.0001)  MDS_READ_SEC_XZ: opening file: pickup_orlanskiS.ckptA.002.013.data
(PID.TID 0000.0001)  MDS_READ_SEC_XZ: opening file: pickup_orlanskiS.ckptA.003.013.data
(PID.TID 0000.0001)  MDS_READ_SEC_XZ: opening file: pickup_orlanskiS.ckptA.004.013.data
(PID.TID 0000.0001)  MDS_READ_SEC_XZ: opening file: pickup_orlanskiS.ckptA.005.013.data
(PID.TID 0000.0001)  MDS_READ_SEC_XZ: opening file: pickup_orlanskiS.ckptA.006.013.data
(PID.TID 0000.0001)  MDS_READ_SEC_XZ: opening file: pickup_orlanskiS.ckptA.007.013.data
(PID.TID 0000.0001)  MDS_READ_SEC_XZ: opening file: pickup_orlanskiS.ckptA.008.013.data
(PID.TID 0000.0001)  MDS_READ_SEC_XZ: opening file: pickup_orlanskiS.ckptA.009.013.data
(PID.TID 0000.0001)  MDS_READ_SEC_XZ: opening file: pickup_orlanskiS.ckptA.010.013.data
(PID.TID 0000.0001)  MDS_READ_SEC_XZ: opening file: pickup_orlanskiS.ckptA.011.013.data
(PID.TID 0000.0001)  MDS_READ_SEC_XZ: opening file: pickup_orlanskiS.ckptA.012.013.data
(PID.TID 0000.0001)  MDS_READ_SEC_XZ: opening file: pickup_orlanskiS.ckptA.013.013.data
(PID.TID 0000.0001)  MDS_READ_SEC_XZ: opening file: pickup_orlanskiS.ckptA.014.013.data
(PID.TID 0000.0001)  MDS_READ_SEC_XZ: opening file: pickup_orlanskiS.ckptA.015.013.data
(PID.TID 0000.0001)  MDS_READ_SEC_XZ: opening file: pickup_orlanskiS.ckptA.001.014.data
(PID.TID 0000.0001)  MDS_READ_SEC_XZ: opening file: pickup_orlanskiS.ckptA.002.014.data
(PID.TID 0000.0001)  MDS_READ_SEC_XZ: opening file: pickup_orlanskiS.ckptA.003.014.data
(PID.TID 0000.0001)  MDS_READ_SEC_XZ: opening file: pickup_orlanskiS.ckptA.004.014.data
(PID.TID 0000.0001)  MDS_READ_SEC_XZ: opening file: pickup_orlanskiS.ckptA.005.014.data
(PID.TID 0000.0001)  MDS_READ_SEC_XZ: opening file: pickup_orlanskiS.ckptA.006.014.data
(PID.TID 0000.0001)  MDS_READ_SEC_XZ: opening file: pickup_orlanskiS.ckptA.007.014.data
(PID.TID 0000.0001)  MDS_READ_SEC_XZ: opening file: pickup_orlanskiS.ckptA.008.014.data
(PID.TID 0000.0001)  MDS_READ_SEC_XZ: opening file: pickup_orlanskiS.ckptA.009.014.data
(PID.TID 0000.0001)  MDS_READ_SEC_XZ: opening file: pickup_orlanskiS.ckptA.010.014.data
(PID.TID 0000.0001)  MDS_READ_SEC_XZ: opening file: pickup_orlanskiS.ckptA.011.014.data
(PID.TID 0000.0001)  MDS_READ_SEC_XZ: opening file: pickup_orlanskiS.ckptA.012.014.data
(PID.TID 0000.0001)  MDS_READ_SEC_XZ: opening file: pickup_orlanskiS.ckptA.013.014.data
(PID.TID 0000.0001)  MDS_READ_SEC_XZ: opening file: pickup_orlanskiS.ckptA.014.014.data
(PID.TID 0000.0001)  MDS_READ_SEC_XZ: opening file: pickup_orlanskiS.ckptA.015.014.data
(PID.TID 0000.0001)  MDS_READ_SEC_XZ: opening file: pickup_orlanskiS.ckptA.001.015.data
(PID.TID 0000.0001)  MDS_READ_SEC_XZ: opening file: pickup_orlanskiS.ckptA.002.015.data
(PID.TID 0000.0001)  MDS_READ_SEC_XZ: opening file: pickup_orlanskiS.ckptA.003.015.data
(PID.TID 0000.0001)  MDS_READ_SEC_XZ: opening file: pickup_orlanskiS.ckptA.004.015.data
(PID.TID 0000.0001)  MDS_READ_SEC_XZ: opening file: pickup_orlanskiS.ckptA.005.015.data
(PID.TID 0000.0001)  MDS_READ_SEC_XZ: opening file: pickup_orlanskiS.ckptA.006.015.data
(PID.TID 0000.0001)  MDS_READ_SEC_XZ: opening file: pickup_orlanskiS.ckptA.007.015.data
(PID.TID 0000.0001)  MDS_READ_SEC_XZ: opening file: pickup_orlanskiS.ckptA.008.015.data
(PID.TID 0000.0001)  MDS_READ_SEC_XZ: opening file: pickup_orlanskiS.ckptA.009.015.data
(PID.TID 0000.0001)  MDS_READ_SEC_XZ: opening file: pickup_orlanskiS.ckptA.010.015.data
(PID.TID 0000.0001)  MDS_READ_SEC_XZ: opening file: pickup_orlanskiS.ckptA.011.015.data
(PID.TID 0000.0001)  MDS_READ_SEC_XZ: opening file: pickup_orlanskiS.ckptA.012.015.data
(PID.TID 0000.0001)  MDS_READ_SEC_XZ: opening file: pickup_orlanskiS.ckptA.013.015.data
(PID.TID 0000.0001)  MDS_READ_SEC_XZ: opening file: pickup_orlanskiS.ckptA.014.015.data
(PID.TID 0000.0001)  MDS_READ_SEC_XZ: opening file: pickup_orlanskiS.ckptA.015.015.data
(PID.TID 0000.0001)  MDS_READ_SEC_XZ: opening file: pickup_orlanskiS.ckptA.001.001.data
(PID.TID 0000.0001)  MDS_READ_SEC_XZ: opening file: pickup_orlanskiS.ckptA.002.001.data
(PID.TID 0000.0001)  MDS_READ_SEC_XZ: opening file: pickup_orlanskiS.ckptA.003.001.data
(PID.TID 0000.0001)  MDS_READ_SEC_XZ: opening file: pickup_orlanskiS.ckptA.004.001.data
(PID.TID 0000.0001)  MDS_READ_SEC_XZ: opening file: pickup_orlanskiS.ckptA.005.001.data
(PID.TID 0000.0001)  MDS_READ_SEC_XZ: opening file: pickup_orlanskiS.ckptA.006.001.data
(PID.TID 0000.0001)  MDS_READ_SEC_XZ: opening file: pickup_orlanskiS.ckptA.007.001.data
(PID.TID 0000.0001)  MDS_READ_SEC_XZ: opening file: pickup_orlanskiS.ckptA.008.001.data
(PID.TID 0000.0001)  MDS_READ_SEC_XZ: opening file: pickup_orlanskiS.ckptA.009.001.data
(PID.TID 0000.0001)  MDS_READ_SEC_XZ: opening file: pickup_orlanskiS.ckptA.010.001.data
(PID.TID 0000.0001)  MDS_READ_SEC_XZ: opening file: pickup_orlanskiS.ckptA.011.001.data
(PID.TID 0000.0001)  MDS_READ_SEC_XZ: opening file: pickup_orlanskiS.ckptA.012.001.data
(PID.TID 0000.0001)  MDS_READ_SEC_XZ: opening file: pickup_orlanskiS.ckptA.013.001.data
(PID.TID 0000.0001)  MDS_READ_SEC_XZ: opening file: pickup_orlanskiS.ckptA.014.001.data
(PID.TID 0000.0001)  MDS_READ_SEC_XZ: opening file: pickup_orlanskiS.ckptA.015.001.data
(PID.TID 0000.0001)  MDS_READ_SEC_XZ: opening file: pickup_orlanskiS.ckptA.001.002.data
(PID.TID 0000.0001)  MDS_READ_SEC_XZ: opening file: pickup_orlanskiS.ckptA.002.002.data
(PID.TID 0000.0001)  MDS_READ_SEC_XZ: opening file: pickup_orlanskiS.ckptA.003.002.data
(PID.TID 0000.0001)  MDS_READ_SEC_XZ: opening file: pickup_orlanskiS.ckptA.004.002.data
(PID.TID 0000.0001)  MDS_READ_SEC_XZ: opening file: pickup_orlanskiS.ckptA.005.002.data
(PID.TID 0000.0001)  MDS_READ_SEC_XZ: opening file: pickup_orlanskiS.ckptA.006.002.data
(PID.TID 0000.0001)  MDS_READ_SEC_XZ: opening file: pickup_orlanskiS.ckptA.007.002.data
(PID.TID 0000.0001)  MDS_READ_SEC_XZ: opening file: pickup_orlanskiS.ckptA.008.002.data
(PID.TID 0000.0001)  MDS_READ_SEC_XZ: opening file: pickup_orlanskiS.ckptA.009.002.data
(PID.TID 0000.0001)  MDS_READ_SEC_XZ: opening file: pickup_orlanskiS.ckptA.010.002.data
(PID.TID 0000.0001)  MDS_READ_SEC_XZ: opening file: pickup_orlanskiS.ckptA.011.002.data
(PID.TID 0000.0001)  MDS_READ_SEC_XZ: opening file: pickup_orlanskiS.ckptA.012.002.data
(PID.TID 0000.0001)  MDS_READ_SEC_XZ: opening file: pickup_orlanskiS.ckptA.013.002.data
(PID.TID 0000.0001)  MDS_READ_SEC_XZ: opening file: pickup_orlanskiS.ckptA.014.002.data
(PID.TID 0000.0001)  MDS_READ_SEC_XZ: opening file: pickup_orlanskiS.ckptA.015.002.data
(PID.TID 0000.0001)  MDS_READ_SEC_XZ: opening file: pickup_orlanskiS.ckptA.001.003.data
(PID.TID 0000.0001)  MDS_READ_SEC_XZ: opening file: pickup_orlanskiS.ckptA.002.003.data
(PID.TID 0000.0001)  MDS_READ_SEC_XZ: opening file: pickup_orlanskiS.ckptA.003.003.data
(PID.TID 0000.0001)  MDS_READ_SEC_XZ: opening file: pickup_orlanskiS.ckptA.004.003.data
(PID.TID 0000.0001)  MDS_READ_SEC_XZ: opening file: pickup_orlanskiS.ckptA.005.003.data
(PID.TID 0000.0001)  MDS_READ_SEC_XZ: opening file: pickup_orlanskiS.ckptA.006.003.data
(PID.TID 0000.0001)  MDS_READ_SEC_XZ: opening file: pickup_orlanskiS.ckptA.007.003.data
(PID.TID 0000.0001)  MDS_READ_SEC_XZ: opening file: pickup_orlanskiS.ckptA.008.003.data
(PID.TID 0000.0001)  MDS_READ_SEC_XZ: opening file: pickup_orlanskiS.ckptA.009.003.data
(PID.TID 0000.0001)  MDS_READ_SEC_XZ: opening file: pickup_orlanskiS.ckptA.010.003.data
(PID.TID 0000.0001)  MDS_READ_SEC_XZ: opening file: pickup_orlanskiS.ckptA.011.003.data
(PID.TID 0000.0001)  MDS_READ_SEC_XZ: opening file: pickup_orlanskiS.ckptA.012.003.data
(PID.TID 0000.0001)  MDS_READ_SEC_XZ: opening file: pickup_orlanskiS.ckptA.013.003.data
(PID.TID 0000.0001)  MDS_READ_SEC_XZ: opening file: pickup_orlanskiS.ckptA.014.003.data
(PID.TID 0000.0001)  MDS_READ_SEC_XZ: opening file: pickup_orlanskiS.ckptA.015.003.data
(PID.TID 0000.0001)  MDS_READ_SEC_XZ: opening file: pickup_orlanskiS.ckptA.001.004.data
(PID.TID 0000.0001)  MDS_READ_SEC_XZ: opening file: pickup_orlanskiS.ckptA.002.004.data
(PID.TID 0000.0001)  MDS_READ_SEC_XZ: opening file: pickup_orlanskiS.ckptA.003.004.data
(PID.TID 0000.0001)  MDS_READ_SEC_XZ: opening file: pickup_orlanskiS.ckptA.004.004.data
(PID.TID 0000.0001)  MDS_READ_SEC_XZ: opening file: pickup_orlanskiS.ckptA.005.004.data
(PID.TID 0000.0001)  MDS_READ_SEC_XZ: opening file: pickup_orlanskiS.ckptA.006.004.data
(PID.TID 0000.0001)  MDS_READ_SEC_XZ: opening file: pickup_orlanskiS.ckptA.007.004.data
(PID.TID 0000.0001)  MDS_READ_SEC_XZ: opening file: pickup_orlanskiS.ckptA.008.004.data
(PID.TID 0000.0001)  MDS_READ_SEC_XZ: opening file: pickup_orlanskiS.ckptA.009.004.data
(PID.TID 0000.0001)  MDS_READ_SEC_XZ: opening file: pickup_orlanskiS.ckptA.010.004.data
(PID.TID 0000.0001)  MDS_READ_SEC_XZ: opening file: pickup_orlanskiS.ckptA.011.004.data
(PID.TID 0000.0001)  MDS_READ_SEC_XZ: opening file: pickup_orlanskiS.ckptA.012.004.data
(PID.TID 0000.0001)  MDS_READ_SEC_XZ: opening file: pickup_orlanskiS.ckptA.013.004.data
(PID.TID 0000.0001)  MDS_READ_SEC_XZ: opening file: pickup_orlanskiS.ckptA.014.004.data
(PID.TID 0000.0001)  MDS_READ_SEC_XZ: opening file: pickup_orlanskiS.ckptA.015.004.data
(PID.TID 0000.0001)  MDS_READ_SEC_XZ: opening file: pickup_orlanskiS.ckptA.001.005.data
(PID.TID 0000.0001)  MDS_READ_SEC_XZ: opening file: pickup_orlanskiS.ckptA.002.005.data
(PID.TID 0000.0001)  MDS_READ_SEC_XZ: opening file: pickup_orlanskiS.ckptA.003.005.data
(PID.TID 0000.0001)  MDS_READ_SEC_XZ: opening file: pickup_orlanskiS.ckptA.004.005.data
(PID.TID 0000.0001)  MDS_READ_SEC_XZ: opening file: pickup_orlanskiS.ckptA.005.005.data
(PID.TID 0000.0001)  MDS_READ_SEC_XZ: opening file: pickup_orlanskiS.ckptA.006.005.data
(PID.TID 0000.0001)  MDS_READ_SEC_XZ: opening file: pickup_orlanskiS.ckptA.007.005.data
(PID.TID 0000.0001)  MDS_READ_SEC_XZ: opening file: pickup_orlanskiS.ckptA.008.005.data
(PID.TID 0000.0001)  MDS_READ_SEC_XZ: opening file: pickup_orlanskiS.ckptA.009.005.data
(PID.TID 0000.0001)  MDS_READ_SEC_XZ: opening file: pickup_orlanskiS.ckptA.010.005.data
(PID.TID 0000.0001)  MDS_READ_SEC_XZ: opening file: pickup_orlanskiS.ckptA.011.005.data
(PID.TID 0000.0001)  MDS_READ_SEC_XZ: opening file: pickup_orlanskiS.ckptA.012.005.data
(PID.TID 0000.0001)  MDS_READ_SEC_XZ: opening file: pickup_orlanskiS.ckptA.013.005.data
(PID.TID 0000.0001)  MDS_READ_SEC_XZ: opening file: pickup_orlanskiS.ckptA.014.005.data
(PID.TID 0000.0001)  MDS_READ_SEC_XZ: opening file: pickup_orlanskiS.ckptA.015.005.data
(PID.TID 0000.0001)  MDS_READ_SEC_XZ: opening file: pickup_orlanskiS.ckptA.001.006.data
(PID.TID 0000.0001)  MDS_READ_SEC_XZ: opening file: pickup_orlanskiS.ckptA.002.006.data
(PID.TID 0000.0001)  MDS_READ_SEC_XZ: opening file: pickup_orlanskiS.ckptA.003.006.data
(PID.TID 0000.0001)  MDS_READ_SEC_XZ: opening file: pickup_orlanskiS.ckptA.004.006.data
(PID.TID 0000.0001)  MDS_READ_SEC_XZ: opening file: pickup_orlanskiS.ckptA.005.006.data
(PID.TID 0000.0001)  MDS_READ_SEC_XZ: opening file: pickup_orlanskiS.ckptA.006.006.data
(PID.TID 0000.0001)  MDS_READ_SEC_XZ: opening file: pickup_orlanskiS.ckptA.007.006.data
(PID.TID 0000.0001)  MDS_READ_SEC_XZ: opening file: pickup_orlanskiS.ckptA.008.006.data
(PID.TID 0000.0001)  MDS_READ_SEC_XZ: opening file: pickup_orlanskiS.ckptA.009.006.data
(PID.TID 0000.0001)  MDS_READ_SEC_XZ: opening file: pickup_orlanskiS.ckptA.010.006.data
(PID.TID 0000.0001)  MDS_READ_SEC_XZ: opening file: pickup_orlanskiS.ckptA.011.006.data
(PID.TID 0000.0001)  MDS_READ_SEC_XZ: opening file: pickup_orlanskiS.ckptA.012.006.data
(PID.TID 0000.0001)  MDS_READ_SEC_XZ: opening file: pickup_orlanskiS.ckptA.013.006.data
(PID.TID 0000.0001)  MDS_READ_SEC_XZ: opening file: pickup_orlanskiS.ckptA.014.006.data
(PID.TID 0000.0001)  MDS_READ_SEC_XZ: opening file: pickup_orlanskiS.ckptA.015.006.data
(PID.TID 0000.0001)  MDS_READ_SEC_XZ: opening file: pickup_orlanskiS.ckptA.001.007.data
(PID.TID 0000.0001)  MDS_READ_SEC_XZ: opening file: pickup_orlanskiS.ckptA.002.007.data
(PID.TID 0000.0001)  MDS_READ_SEC_XZ: opening file: pickup_orlanskiS.ckptA.003.007.data
(PID.TID 0000.0001)  MDS_READ_SEC_XZ: opening file: pickup_orlanskiS.ckptA.004.007.data
(PID.TID 0000.0001)  MDS_READ_SEC_XZ: opening file: pickup_orlanskiS.ckptA.005.007.data
(PID.TID 0000.0001)  MDS_READ_SEC_XZ: opening file: pickup_orlanskiS.ckptA.006.007.data
(PID.TID 0000.0001)  MDS_READ_SEC_XZ: opening file: pickup_orlanskiS.ckptA.007.007.data
(PID.TID 0000.0001)  MDS_READ_SEC_XZ: opening file: pickup_orlanskiS.ckptA.008.007.data
(PID.TID 0000.0001)  MDS_READ_SEC_XZ: opening file: pickup_orlanskiS.ckptA.009.007.data
(PID.TID 0000.0001)  MDS_READ_SEC_XZ: opening file: pickup_orlanskiS.ckptA.010.007.data
(PID.TID 0000.0001)  MDS_READ_SEC_XZ: opening file: pickup_orlanskiS.ckptA.011.007.data
(PID.TID 0000.0001)  MDS_READ_SEC_XZ: opening file: pickup_orlanskiS.ckptA.012.007.data
(PID.TID 0000.0001)  MDS_READ_SEC_XZ: opening file: pickup_orlanskiS.ckptA.013.007.data
(PID.TID 0000.0001)  MDS_READ_SEC_XZ: opening file: pickup_orlanskiS.ckptA.014.007.data
(PID.TID 0000.0001)  MDS_READ_SEC_XZ: opening file: pickup_orlanskiS.ckptA.015.007.data
(PID.TID 0000.0001)  MDS_READ_SEC_XZ: opening file: pickup_orlanskiS.ckptA.001.008.data
(PID.TID 0000.0001)  MDS_READ_SEC_XZ: opening file: pickup_orlanskiS.ckptA.002.008.data
(PID.TID 0000.0001)  MDS_READ_SEC_XZ: opening file: pickup_orlanskiS.ckptA.003.008.data
(PID.TID 0000.0001)  MDS_READ_SEC_XZ: opening file: pickup_orlanskiS.ckptA.004.008.data
(PID.TID 0000.0001)  MDS_READ_SEC_XZ: opening file: pickup_orlanskiS.ckptA.005.008.data
(PID.TID 0000.0001)  MDS_READ_SEC_XZ: opening file: pickup_orlanskiS.ckptA.006.008.data
(PID.TID 0000.0001)  MDS_READ_SEC_XZ: opening file: pickup_orlanskiS.ckptA.007.008.data
(PID.TID 0000.0001)  MDS_READ_SEC_XZ: opening file: pickup_orlanskiS.ckptA.008.008.data
(PID.TID 0000.0001)  MDS_READ_SEC_XZ: opening file: pickup_orlanskiS.ckptA.009.008.data
(PID.TID 0000.0001)  MDS_READ_SEC_XZ: opening file: pickup_orlanskiS.ckptA.010.008.data
(PID.TID 0000.0001)  MDS_READ_SEC_XZ: opening file: pickup_orlanskiS.ckptA.011.008.data
(PID.TID 0000.0001)  MDS_READ_SEC_XZ: opening file: pickup_orlanskiS.ckptA.012.008.data
(PID.TID 0000.0001)  MDS_READ_SEC_XZ: opening file: pickup_orlanskiS.ckptA.013.008.data
(PID.TID 0000.0001)  MDS_READ_SEC_XZ: opening file: pickup_orlanskiS.ckptA.014.008.data
(PID.TID 0000.0001)  MDS_READ_SEC_XZ: opening file: pickup_orlanskiS.ckptA.015.008.data
(PID.TID 0000.0001)  MDS_READ_SEC_XZ: opening file: pickup_orlanskiS.ckptA.001.009.data
(PID.TID 0000.0001)  MDS_READ_SEC_XZ: opening file: pickup_orlanskiS.ckptA.002.009.data
(PID.TID 0000.0001)  MDS_READ_SEC_XZ: opening file: pickup_orlanskiS.ckptA.003.009.data
(PID.TID 0000.0001)  MDS_READ_SEC_XZ: opening file: pickup_orlanskiS.ckptA.004.009.data
(PID.TID 0000.0001)  MDS_READ_SEC_XZ: opening file: pickup_orlanskiS.ckptA.005.009.data
(PID.TID 0000.0001)  MDS_READ_SEC_XZ: opening file: pickup_orlanskiS.ckptA.006.009.data
(PID.TID 0000.0001)  MDS_READ_SEC_XZ: opening file: pickup_orlanskiS.ckptA.007.009.data
(PID.TID 0000.0001)  MDS_READ_SEC_XZ: opening file: pickup_orlanskiS.ckptA.008.009.data
(PID.TID 0000.0001)  MDS_READ_SEC_XZ: opening file: pickup_orlanskiS.ckptA.009.009.data
(PID.TID 0000.0001)  MDS_READ_SEC_XZ: opening file: pickup_orlanskiS.ckptA.010.009.data
(PID.TID 0000.0001)  MDS_READ_SEC_XZ: opening file: pickup_orlanskiS.ckptA.011.009.data
(PID.TID 0000.0001)  MDS_READ_SEC_XZ: opening file: pickup_orlanskiS.ckptA.012.009.data
(PID.TID 0000.0001)  MDS_READ_SEC_XZ: opening file: pickup_orlanskiS.ckptA.013.009.data
(PID.TID 0000.0001)  MDS_READ_SEC_XZ: opening file: pickup_orlanskiS.ckptA.014.009.data
(PID.TID 0000.0001)  MDS_READ_SEC_XZ: opening file: pickup_orlanskiS.ckptA.015.009.data
(PID.TID 0000.0001)  MDS_READ_SEC_XZ: opening file: pickup_orlanskiS.ckptA.001.010.data
(PID.TID 0000.0001)  MDS_READ_SEC_XZ: opening file: pickup_orlanskiS.ckptA.002.010.data
(PID.TID 0000.0001)  MDS_READ_SEC_XZ: opening file: pickup_orlanskiS.ckptA.003.010.data
(PID.TID 0000.0001)  MDS_READ_SEC_XZ: opening file: pickup_orlanskiS.ckptA.004.010.data
(PID.TID 0000.0001)  MDS_READ_SEC_XZ: opening file: pickup_orlanskiS.ckptA.005.010.data
(PID.TID 0000.0001)  MDS_READ_SEC_XZ: opening file: pickup_orlanskiS.ckptA.006.010.data
(PID.TID 0000.0001)  MDS_READ_SEC_XZ: opening file: pickup_orlanskiS.ckptA.007.010.data
(PID.TID 0000.0001)  MDS_READ_SEC_XZ: opening file: pickup_orlanskiS.ckptA.008.010.data
(PID.TID 0000.0001)  MDS_READ_SEC_XZ: opening file: pickup_orlanskiS.ckptA.009.010.data
(PID.TID 0000.0001)  MDS_READ_SEC_XZ: opening file: pickup_orlanskiS.ckptA.010.010.data
(PID.TID 0000.0001)  MDS_READ_SEC_XZ: opening file: pickup_orlanskiS.ckptA.011.010.data
(PID.TID 0000.0001)  MDS_READ_SEC_XZ: opening file: pickup_orlanskiS.ckptA.012.010.data
(PID.TID 0000.0001)  MDS_READ_SEC_XZ: opening file: pickup_orlanskiS.ckptA.013.010.data
(PID.TID 0000.0001)  MDS_READ_SEC_XZ: opening file: pickup_orlanskiS.ckptA.014.010.data
(PID.TID 0000.0001)  MDS_READ_SEC_XZ: opening file: pickup_orlanskiS.ckptA.015.010.data
(PID.TID 0000.0001)  MDS_READ_SEC_XZ: opening file: pickup_orlanskiS.ckptA.001.011.data
(PID.TID 0000.0001)  MDS_READ_SEC_XZ: opening file: pickup_orlanskiS.ckptA.002.011.data
(PID.TID 0000.0001)  MDS_READ_SEC_XZ: opening file: pickup_orlanskiS.ckptA.003.011.data
(PID.TID 0000.0001)  MDS_READ_SEC_XZ: opening file: pickup_orlanskiS.ckptA.004.011.data
(PID.TID 0000.0001)  MDS_READ_SEC_XZ: opening file: pickup_orlanskiS.ckptA.005.011.data
(PID.TID 0000.0001)  MDS_READ_SEC_XZ: opening file: pickup_orlanskiS.ckptA.006.011.data
(PID.TID 0000.0001)  MDS_READ_SEC_XZ: opening file: pickup_orlanskiS.ckptA.007.011.data
(PID.TID 0000.0001)  MDS_READ_SEC_XZ: opening file: pickup_orlanskiS.ckptA.008.011.data
(PID.TID 0000.0001)  MDS_READ_SEC_XZ: opening file: pickup_orlanskiS.ckptA.009.011.data
(PID.TID 0000.0001)  MDS_READ_SEC_XZ: opening file: pickup_orlanskiS.ckptA.010.011.data
(PID.TID 0000.0001)  MDS_READ_SEC_XZ: opening file: pickup_orlanskiS.ckptA.011.011.data
(PID.TID 0000.0001)  MDS_READ_SEC_XZ: opening file: pickup_orlanskiS.ckptA.012.011.data
(PID.TID 0000.0001)  MDS_READ_SEC_XZ: opening file: pickup_orlanskiS.ckptA.013.011.data
(PID.TID 0000.0001)  MDS_READ_SEC_XZ: opening file: pickup_orlanskiS.ckptA.014.011.data
(PID.TID 0000.0001)  MDS_READ_SEC_XZ: opening file: pickup_orlanskiS.ckptA.015.011.data
(PID.TID 0000.0001)  MDS_READ_SEC_XZ: opening file: pickup_orlanskiS.ckptA.001.012.data
(PID.TID 0000.0001)  MDS_READ_SEC_XZ: opening file: pickup_orlanskiS.ckptA.002.012.data
(PID.TID 0000.0001)  MDS_READ_SEC_XZ: opening file: pickup_orlanskiS.ckptA.003.012.data
(PID.TID 0000.0001)  MDS_READ_SEC_XZ: opening file: pickup_orlanskiS.ckptA.004.012.data
(PID.TID 0000.0001)  MDS_READ_SEC_XZ: opening file: pickup_orlanskiS.ckptA.005.012.data
(PID.TID 0000.0001)  MDS_READ_SEC_XZ: opening file: pickup_orlanskiS.ckptA.006.012.data
(PID.TID 0000.0001)  MDS_READ_SEC_XZ: opening file: pickup_orlanskiS.ckptA.007.012.data
(PID.TID 0000.0001)  MDS_READ_SEC_XZ: opening file: pickup_orlanskiS.ckptA.008.012.data
(PID.TID 0000.0001)  MDS_READ_SEC_XZ: opening file: pickup_orlanskiS.ckptA.009.012.data
(PID.TID 0000.0001)  MDS_READ_SEC_XZ: opening file: pickup_orlanskiS.ckptA.010.012.data
(PID.TID 0000.0001)  MDS_READ_SEC_XZ: opening file: pickup_orlanskiS.ckptA.011.012.data
(PID.TID 0000.0001)  MDS_READ_SEC_XZ: opening file: pickup_orlanskiS.ckptA.012.012.data
(PID.TID 0000.0001)  MDS_READ_SEC_XZ: opening file: pickup_orlanskiS.ckptA.013.012.data
(PID.TID 0000.0001)  MDS_READ_SEC_XZ: opening file: pickup_orlanskiS.ckptA.014.012.data
(PID.TID 0000.0001)  MDS_READ_SEC_XZ: opening file: pickup_orlanskiS.ckptA.015.012.data
(PID.TID 0000.0001)  MDS_READ_SEC_XZ: opening file: pickup_orlanskiS.ckptA.001.013.data
(PID.TID 0000.0001)  MDS_READ_SEC_XZ: opening file: pickup_orlanskiS.ckptA.002.013.data
(PID.TID 0000.0001)  MDS_READ_SEC_XZ: opening file: pickup_orlanskiS.ckptA.003.013.data
(PID.TID 0000.0001)  MDS_READ_SEC_XZ: opening file: pickup_orlanskiS.ckptA.004.013.data
(PID.TID 0000.0001)  MDS_READ_SEC_XZ: opening file: pickup_orlanskiS.ckptA.005.013.data
(PID.TID 0000.0001)  MDS_READ_SEC_XZ: opening file: pickup_orlanskiS.ckptA.006.013.data
(PID.TID 0000.0001)  MDS_READ_SEC_XZ: opening file: pickup_orlanskiS.ckptA.007.013.data
(PID.TID 0000.0001)  MDS_READ_SEC_XZ: opening file: pickup_orlanskiS.ckptA.008.013.data
(PID.TID 0000.0001)  MDS_READ_SEC_XZ: opening file: pickup_orlanskiS.ckptA.009.013.data
(PID.TID 0000.0001)  MDS_READ_SEC_XZ: opening file: pickup_orlanskiS.ckptA.010.013.data
(PID.TID 0000.0001)  MDS_READ_SEC_XZ: opening file: pickup_orlanskiS.ckptA.011.013.data
(PID.TID 0000.0001)  MDS_READ_SEC_XZ: opening file: pickup_orlanskiS.ckptA.012.013.data
(PID.TID 0000.0001)  MDS_READ_SEC_XZ: opening file: pickup_orlanskiS.ckptA.013.013.data
(PID.TID 0000.0001)  MDS_READ_SEC_XZ: opening file: pickup_orlanskiS.ckptA.014.013.data
(PID.TID 0000.0001)  MDS_READ_SEC_XZ: opening file: pickup_orlanskiS.ckptA.015.013.data
(PID.TID 0000.0001)  MDS_READ_SEC_XZ: opening file: pickup_orlanskiS.ckptA.001.014.data
(PID.TID 0000.0001)  MDS_READ_SEC_XZ: opening file: pickup_orlanskiS.ckptA.002.014.data
(PID.TID 0000.0001)  MDS_READ_SEC_XZ: opening file: pickup_orlanskiS.ckptA.003.014.data
(PID.TID 0000.0001)  MDS_READ_SEC_XZ: opening file: pickup_orlanskiS.ckptA.004.014.data
(PID.TID 0000.0001)  MDS_READ_SEC_XZ: opening file: pickup_orlanskiS.ckptA.005.014.data
(PID.TID 0000.0001)  MDS_READ_SEC_XZ: opening file: pickup_orlanskiS.ckptA.006.014.data
(PID.TID 0000.0001)  MDS_READ_SEC_XZ: opening file: pickup_orlanskiS.ckptA.007.014.data
(PID.TID 0000.0001)  MDS_READ_SEC_XZ: opening file: pickup_orlanskiS.ckptA.008.014.data
(PID.TID 0000.0001)  MDS_READ_SEC_XZ: opening file: pickup_orlanskiS.ckptA.009.014.data
(PID.TID 0000.0001)  MDS_READ_SEC_XZ: opening file: pickup_orlanskiS.ckptA.010.014.data
(PID.TID 0000.0001)  MDS_READ_SEC_XZ: opening file: pickup_orlanskiS.ckptA.011.014.data
(PID.TID 0000.0001)  MDS_READ_SEC_XZ: opening file: pickup_orlanskiS.ckptA.012.014.data
(PID.TID 0000.0001)  MDS_READ_SEC_XZ: opening file: pickup_orlanskiS.ckptA.013.014.data
(PID.TID 0000.0001)  MDS_READ_SEC_XZ: opening file: pickup_orlanskiS.ckptA.014.014.data
(PID.TID 0000.0001)  MDS_READ_SEC_XZ: opening file: pickup_orlanskiS.ckptA.015.014.data
(PID.TID 0000.0001)  MDS_READ_SEC_XZ: opening file: pickup_orlanskiS.ckptA.001.015.data
(PID.TID 0000.0001)  MDS_READ_SEC_XZ: opening file: pickup_orlanskiS.ckptA.002.015.data
(PID.TID 0000.0001)  MDS_READ_SEC_XZ: opening file: pickup_orlanskiS.ckptA.003.015.data
(PID.TID 0000.0001)  MDS_READ_SEC_XZ: opening file: pickup_orlanskiS.ckptA.004.015.data
(PID.TID 0000.0001)  MDS_READ_SEC_XZ: opening file: pickup_orlanskiS.ckptA.005.015.data
(PID.TID 0000.0001)  MDS_READ_SEC_XZ: opening file: pickup_orlanskiS.ckptA.006.015.data
(PID.TID 0000.0001)  MDS_READ_SEC_XZ: opening file: pickup_orlanskiS.ckptA.007.015.data
(PID.TID 0000.0001)  MDS_READ_SEC_XZ: opening file: pickup_orlanskiS.ckptA.008.015.data
(PID.TID 0000.0001)  MDS_READ_SEC_XZ: opening file: pickup_orlanskiS.ckptA.009.015.data
(PID.TID 0000.0001)  MDS_READ_SEC_XZ: opening file: pickup_orlanskiS.ckptA.010.015.data
(PID.TID 0000.0001)  MDS_READ_SEC_XZ: opening file: pickup_orlanskiS.ckptA.011.015.data
(PID.TID 0000.0001)  MDS_READ_SEC_XZ: opening file: pickup_orlanskiS.ckptA.012.015.data
(PID.TID 0000.0001)  MDS_READ_SEC_XZ: opening file: pickup_orlanskiS.ckptA.013.015.data
(PID.TID 0000.0001)  MDS_READ_SEC_XZ: opening file: pickup_orlanskiS.ckptA.014.015.data
(PID.TID 0000.0001)  MDS_READ_SEC_XZ: opening file: pickup_orlanskiS.ckptA.015.015.data
(PID.TID 0000.0001)  MDS_READ_SEC_XZ: opening file: pickup_orlanskiS.ckptA.001.001.data
(PID.TID 0000.0001)  MDS_READ_SEC_XZ: opening file: pickup_orlanskiS.ckptA.002.001.data
(PID.TID 0000.0001)  MDS_READ_SEC_XZ: opening file: pickup_orlanskiS.ckptA.003.001.data
(PID.TID 0000.0001)  MDS_READ_SEC_XZ: opening file: pickup_orlanskiS.ckptA.004.001.data
(PID.TID 0000.0001)  MDS_READ_SEC_XZ: opening file: pickup_orlanskiS.ckptA.005.001.data
(PID.TID 0000.0001)  MDS_READ_SEC_XZ: opening file: pickup_orlanskiS.ckptA.006.001.data
(PID.TID 0000.0001)  MDS_READ_SEC_XZ: opening file: pickup_orlanskiS.ckptA.007.001.data
(PID.TID 0000.0001)  MDS_READ_SEC_XZ: opening file: pickup_orlanskiS.ckptA.008.001.data
(PID.TID 0000.0001)  MDS_READ_SEC_XZ: opening file: pickup_orlanskiS.ckptA.009.001.data
(PID.TID 0000.0001)  MDS_READ_SEC_XZ: opening file: pickup_orlanskiS.ckptA.010.001.data
(PID.TID 0000.0001)  MDS_READ_SEC_XZ: opening file: pickup_orlanskiS.ckptA.011.001.data
(PID.TID 0000.0001)  MDS_READ_SEC_XZ: opening file: pickup_orlanskiS.ckptA.012.001.data
(PID.TID 0000.0001)  MDS_READ_SEC_XZ: opening file: pickup_orlanskiS.ckptA.013.001.data
(PID.TID 0000.0001)  MDS_READ_SEC_XZ: opening file: pickup_orlanskiS.ckptA.014.001.data
(PID.TID 0000.0001)  MDS_READ_SEC_XZ: opening file: pickup_orlanskiS.ckptA.015.001.data
(PID.TID 0000.0001)  MDS_READ_SEC_XZ: opening file: pickup_orlanskiS.ckptA.001.002.data
(PID.TID 0000.0001)  MDS_READ_SEC_XZ: opening file: pickup_orlanskiS.ckptA.002.002.data
(PID.TID 0000.0001)  MDS_READ_SEC_XZ: opening file: pickup_orlanskiS.ckptA.003.002.data
(PID.TID 0000.0001)  MDS_READ_SEC_XZ: opening file: pickup_orlanskiS.ckptA.004.002.data
(PID.TID 0000.0001)  MDS_READ_SEC_XZ: opening file: pickup_orlanskiS.ckptA.005.002.data
(PID.TID 0000.0001)  MDS_READ_SEC_XZ: opening file: pickup_orlanskiS.ckptA.006.002.data
(PID.TID 0000.0001)  MDS_READ_SEC_XZ: opening file: pickup_orlanskiS.ckptA.007.002.data
(PID.TID 0000.0001)  MDS_READ_SEC_XZ: opening file: pickup_orlanskiS.ckptA.008.002.data
(PID.TID 0000.0001)  MDS_READ_SEC_XZ: opening file: pickup_orlanskiS.ckptA.009.002.data
(PID.TID 0000.0001)  MDS_READ_SEC_XZ: opening file: pickup_orlanskiS.ckptA.010.002.data
(PID.TID 0000.0001)  MDS_READ_SEC_XZ: opening file: pickup_orlanskiS.ckptA.011.002.data
(PID.TID 0000.0001)  MDS_READ_SEC_XZ: opening file: pickup_orlanskiS.ckptA.012.002.data
(PID.TID 0000.0001)  MDS_READ_SEC_XZ: opening file: pickup_orlanskiS.ckptA.013.002.data
(PID.TID 0000.0001)  MDS_READ_SEC_XZ: opening file: pickup_orlanskiS.ckptA.014.002.data
(PID.TID 0000.0001)  MDS_READ_SEC_XZ: opening file: pickup_orlanskiS.ckptA.015.002.data
(PID.TID 0000.0001)  MDS_READ_SEC_XZ: opening file: pickup_orlanskiS.ckptA.001.003.data
(PID.TID 0000.0001)  MDS_READ_SEC_XZ: opening file: pickup_orlanskiS.ckptA.002.003.data
(PID.TID 0000.0001)  MDS_READ_SEC_XZ: opening file: pickup_orlanskiS.ckptA.003.003.data
(PID.TID 0000.0001)  MDS_READ_SEC_XZ: opening file: pickup_orlanskiS.ckptA.004.003.data
(PID.TID 0000.0001)  MDS_READ_SEC_XZ: opening file: pickup_orlanskiS.ckptA.005.003.data
(PID.TID 0000.0001)  MDS_READ_SEC_XZ: opening file: pickup_orlanskiS.ckptA.006.003.data
(PID.TID 0000.0001)  MDS_READ_SEC_XZ: opening file: pickup_orlanskiS.ckptA.007.003.data
(PID.TID 0000.0001)  MDS_READ_SEC_XZ: opening file: pickup_orlanskiS.ckptA.008.003.data
(PID.TID 0000.0001)  MDS_READ_SEC_XZ: opening file: pickup_orlanskiS.ckptA.009.003.data
(PID.TID 0000.0001)  MDS_READ_SEC_XZ: opening file: pickup_orlanskiS.ckptA.010.003.data
(PID.TID 0000.0001)  MDS_READ_SEC_XZ: opening file: pickup_orlanskiS.ckptA.011.003.data
(PID.TID 0000.0001)  MDS_READ_SEC_XZ: opening file: pickup_orlanskiS.ckptA.012.003.data
(PID.TID 0000.0001)  MDS_READ_SEC_XZ: opening file: pickup_orlanskiS.ckptA.013.003.data
(PID.TID 0000.0001)  MDS_READ_SEC_XZ: opening file: pickup_orlanskiS.ckptA.014.003.data
(PID.TID 0000.0001)  MDS_READ_SEC_XZ: opening file: pickup_orlanskiS.ckptA.015.003.data
(PID.TID 0000.0001)  MDS_READ_SEC_XZ: opening file: pickup_orlanskiS.ckptA.001.004.data
(PID.TID 0000.0001)  MDS_READ_SEC_XZ: opening file: pickup_orlanskiS.ckptA.002.004.data
(PID.TID 0000.0001)  MDS_READ_SEC_XZ: opening file: pickup_orlanskiS.ckptA.003.004.data
(PID.TID 0000.0001)  MDS_READ_SEC_XZ: opening file: pickup_orlanskiS.ckptA.004.004.data
(PID.TID 0000.0001)  MDS_READ_SEC_XZ: opening file: pickup_orlanskiS.ckptA.005.004.data
(PID.TID 0000.0001)  MDS_READ_SEC_XZ: opening file: pickup_orlanskiS.ckptA.006.004.data
(PID.TID 0000.0001)  MDS_READ_SEC_XZ: opening file: pickup_orlanskiS.ckptA.007.004.data
(PID.TID 0000.0001)  MDS_READ_SEC_XZ: opening file: pickup_orlanskiS.ckptA.008.004.data
(PID.TID 0000.0001)  MDS_READ_SEC_XZ: opening file: pickup_orlanskiS.ckptA.009.004.data
(PID.TID 0000.0001)  MDS_READ_SEC_XZ: opening file: pickup_orlanskiS.ckptA.010.004.data
(PID.TID 0000.0001)  MDS_READ_SEC_XZ: opening file: pickup_orlanskiS.ckptA.011.004.data
(PID.TID 0000.0001)  MDS_READ_SEC_XZ: opening file: pickup_orlanskiS.ckptA.012.004.data
(PID.TID 0000.0001)  MDS_READ_SEC_XZ: opening file: pickup_orlanskiS.ckptA.013.004.data
(PID.TID 0000.0001)  MDS_READ_SEC_XZ: opening file: pickup_orlanskiS.ckptA.014.004.data
(PID.TID 0000.0001)  MDS_READ_SEC_XZ: opening file: pickup_orlanskiS.ckptA.015.004.data
(PID.TID 0000.0001)  MDS_READ_SEC_XZ: opening file: pickup_orlanskiS.ckptA.001.005.data
(PID.TID 0000.0001)  MDS_READ_SEC_XZ: opening file: pickup_orlanskiS.ckptA.002.005.data
(PID.TID 0000.0001)  MDS_READ_SEC_XZ: opening file: pickup_orlanskiS.ckptA.003.005.data
(PID.TID 0000.0001)  MDS_READ_SEC_XZ: opening file: pickup_orlanskiS.ckptA.004.005.data
(PID.TID 0000.0001)  MDS_READ_SEC_XZ: opening file: pickup_orlanskiS.ckptA.005.005.data
(PID.TID 0000.0001)  MDS_READ_SEC_XZ: opening file: pickup_orlanskiS.ckptA.006.005.data
(PID.TID 0000.0001)  MDS_READ_SEC_XZ: opening file: pickup_orlanskiS.ckptA.007.005.data
(PID.TID 0000.0001)  MDS_READ_SEC_XZ: opening file: pickup_orlanskiS.ckptA.008.005.data
(PID.TID 0000.0001)  MDS_READ_SEC_XZ: opening file: pickup_orlanskiS.ckptA.009.005.data
(PID.TID 0000.0001)  MDS_READ_SEC_XZ: opening file: pickup_orlanskiS.ckptA.010.005.data
(PID.TID 0000.0001)  MDS_READ_SEC_XZ: opening file: pickup_orlanskiS.ckptA.011.005.data
(PID.TID 0000.0001)  MDS_READ_SEC_XZ: opening file: pickup_orlanskiS.ckptA.012.005.data
(PID.TID 0000.0001)  MDS_READ_SEC_XZ: opening file: pickup_orlanskiS.ckptA.013.005.data
(PID.TID 0000.0001)  MDS_READ_SEC_XZ: opening file: pickup_orlanskiS.ckptA.014.005.data
(PID.TID 0000.0001)  MDS_READ_SEC_XZ: opening file: pickup_orlanskiS.ckptA.015.005.data
(PID.TID 0000.0001)  MDS_READ_SEC_XZ: opening file: pickup_orlanskiS.ckptA.001.006.data
(PID.TID 0000.0001)  MDS_READ_SEC_XZ: opening file: pickup_orlanskiS.ckptA.002.006.data
(PID.TID 0000.0001)  MDS_READ_SEC_XZ: opening file: pickup_orlanskiS.ckptA.003.006.data
(PID.TID 0000.0001)  MDS_READ_SEC_XZ: opening file: pickup_orlanskiS.ckptA.004.006.data
(PID.TID 0000.0001)  MDS_READ_SEC_XZ: opening file: pickup_orlanskiS.ckptA.005.006.data
(PID.TID 0000.0001)  MDS_READ_SEC_XZ: opening file: pickup_orlanskiS.ckptA.006.006.data
(PID.TID 0000.0001)  MDS_READ_SEC_XZ: opening file: pickup_orlanskiS.ckptA.007.006.data
(PID.TID 0000.0001)  MDS_READ_SEC_XZ: opening file: pickup_orlanskiS.ckptA.008.006.data
(PID.TID 0000.0001)  MDS_READ_SEC_XZ: opening file: pickup_orlanskiS.ckptA.009.006.data
(PID.TID 0000.0001)  MDS_READ_SEC_XZ: opening file: pickup_orlanskiS.ckptA.010.006.data
(PID.TID 0000.0001)  MDS_READ_SEC_XZ: opening file: pickup_orlanskiS.ckptA.011.006.data
(PID.TID 0000.0001)  MDS_READ_SEC_XZ: opening file: pickup_orlanskiS.ckptA.012.006.data
(PID.TID 0000.0001)  MDS_READ_SEC_XZ: opening file: pickup_orlanskiS.ckptA.013.006.data
(PID.TID 0000.0001)  MDS_READ_SEC_XZ: opening file: pickup_orlanskiS.ckptA.014.006.data
(PID.TID 0000.0001)  MDS_READ_SEC_XZ: opening file: pickup_orlanskiS.ckptA.015.006.data
(PID.TID 0000.0001)  MDS_READ_SEC_XZ: opening file: pickup_orlanskiS.ckptA.001.007.data
(PID.TID 0000.0001)  MDS_READ_SEC_XZ: opening file: pickup_orlanskiS.ckptA.002.007.data
(PID.TID 0000.0001)  MDS_READ_SEC_XZ: opening file: pickup_orlanskiS.ckptA.003.007.data
(PID.TID 0000.0001)  MDS_READ_SEC_XZ: opening file: pickup_orlanskiS.ckptA.004.007.data
(PID.TID 0000.0001)  MDS_READ_SEC_XZ: opening file: pickup_orlanskiS.ckptA.005.007.data
(PID.TID 0000.0001)  MDS_READ_SEC_XZ: opening file: pickup_orlanskiS.ckptA.006.007.data
(PID.TID 0000.0001)  MDS_READ_SEC_XZ: opening file: pickup_orlanskiS.ckptA.007.007.data
(PID.TID 0000.0001)  MDS_READ_SEC_XZ: opening file: pickup_orlanskiS.ckptA.008.007.data
(PID.TID 0000.0001)  MDS_READ_SEC_XZ: opening file: pickup_orlanskiS.ckptA.009.007.data
(PID.TID 0000.0001)  MDS_READ_SEC_XZ: opening file: pickup_orlanskiS.ckptA.010.007.data
(PID.TID 0000.0001)  MDS_READ_SEC_XZ: opening file: pickup_orlanskiS.ckptA.011.007.data
(PID.TID 0000.0001)  MDS_READ_SEC_XZ: opening file: pickup_orlanskiS.ckptA.012.007.data
(PID.TID 0000.0001)  MDS_READ_SEC_XZ: opening file: pickup_orlanskiS.ckptA.013.007.data
(PID.TID 0000.0001)  MDS_READ_SEC_XZ: opening file: pickup_orlanskiS.ckptA.014.007.data
(PID.TID 0000.0001)  MDS_READ_SEC_XZ: opening file: pickup_orlanskiS.ckptA.015.007.data
(PID.TID 0000.0001)  MDS_READ_SEC_XZ: opening file: pickup_orlanskiS.ckptA.001.008.data
(PID.TID 0000.0001)  MDS_READ_SEC_XZ: opening file: pickup_orlanskiS.ckptA.002.008.data
(PID.TID 0000.0001)  MDS_READ_SEC_XZ: opening file: pickup_orlanskiS.ckptA.003.008.data
(PID.TID 0000.0001)  MDS_READ_SEC_XZ: opening file: pickup_orlanskiS.ckptA.004.008.data
(PID.TID 0000.0001)  MDS_READ_SEC_XZ: opening file: pickup_orlanskiS.ckptA.005.008.data
(PID.TID 0000.0001)  MDS_READ_SEC_XZ: opening file: pickup_orlanskiS.ckptA.006.008.data
(PID.TID 0000.0001)  MDS_READ_SEC_XZ: opening file: pickup_orlanskiS.ckptA.007.008.data
(PID.TID 0000.0001)  MDS_READ_SEC_XZ: opening file: pickup_orlanskiS.ckptA.008.008.data
(PID.TID 0000.0001)  MDS_READ_SEC_XZ: opening file: pickup_orlanskiS.ckptA.009.008.data
(PID.TID 0000.0001)  MDS_READ_SEC_XZ: opening file: pickup_orlanskiS.ckptA.010.008.data
(PID.TID 0000.0001)  MDS_READ_SEC_XZ: opening file: pickup_orlanskiS.ckptA.011.008.data
(PID.TID 0000.0001)  MDS_READ_SEC_XZ: opening file: pickup_orlanskiS.ckptA.012.008.data
(PID.TID 0000.0001)  MDS_READ_SEC_XZ: opening file: pickup_orlanskiS.ckptA.013.008.data
(PID.TID 0000.0001)  MDS_READ_SEC_XZ: opening file: pickup_orlanskiS.ckptA.014.008.data
(PID.TID 0000.0001)  MDS_READ_SEC_XZ: opening file: pickup_orlanskiS.ckptA.015.008.data
(PID.TID 0000.0001)  MDS_READ_SEC_XZ: opening file: pickup_orlanskiS.ckptA.001.009.data
(PID.TID 0000.0001)  MDS_READ_SEC_XZ: opening file: pickup_orlanskiS.ckptA.002.009.data
(PID.TID 0000.0001)  MDS_READ_SEC_XZ: opening file: pickup_orlanskiS.ckptA.003.009.data
(PID.TID 0000.0001)  MDS_READ_SEC_XZ: opening file: pickup_orlanskiS.ckptA.004.009.data
(PID.TID 0000.0001)  MDS_READ_SEC_XZ: opening file: pickup_orlanskiS.ckptA.005.009.data
(PID.TID 0000.0001)  MDS_READ_SEC_XZ: opening file: pickup_orlanskiS.ckptA.006.009.data
(PID.TID 0000.0001)  MDS_READ_SEC_XZ: opening file: pickup_orlanskiS.ckptA.007.009.data
(PID.TID 0000.0001)  MDS_READ_SEC_XZ: opening file: pickup_orlanskiS.ckptA.008.009.data
(PID.TID 0000.0001)  MDS_READ_SEC_XZ: opening file: pickup_orlanskiS.ckptA.009.009.data
(PID.TID 0000.0001)  MDS_READ_SEC_XZ: opening file: pickup_orlanskiS.ckptA.010.009.data
(PID.TID 0000.0001)  MDS_READ_SEC_XZ: opening file: pickup_orlanskiS.ckptA.011.009.data
(PID.TID 0000.0001)  MDS_READ_SEC_XZ: opening file: pickup_orlanskiS.ckptA.012.009.data
(PID.TID 0000.0001)  MDS_READ_SEC_XZ: opening file: pickup_orlanskiS.ckptA.013.009.data
(PID.TID 0000.0001)  MDS_READ_SEC_XZ: opening file: pickup_orlanskiS.ckptA.014.009.data
(PID.TID 0000.0001)  MDS_READ_SEC_XZ: opening file: pickup_orlanskiS.ckptA.015.009.data
(PID.TID 0000.0001)  MDS_READ_SEC_XZ: opening file: pickup_orlanskiS.ckptA.001.010.data
(PID.TID 0000.0001)  MDS_READ_SEC_XZ: opening file: pickup_orlanskiS.ckptA.002.010.data
(PID.TID 0000.0001)  MDS_READ_SEC_XZ: opening file: pickup_orlanskiS.ckptA.003.010.data
(PID.TID 0000.0001)  MDS_READ_SEC_XZ: opening file: pickup_orlanskiS.ckptA.004.010.data
(PID.TID 0000.0001)  MDS_READ_SEC_XZ: opening file: pickup_orlanskiS.ckptA.005.010.data
(PID.TID 0000.0001)  MDS_READ_SEC_XZ: opening file: pickup_orlanskiS.ckptA.006.010.data
(PID.TID 0000.0001)  MDS_READ_SEC_XZ: opening file: pickup_orlanskiS.ckptA.007.010.data
(PID.TID 0000.0001)  MDS_READ_SEC_XZ: opening file: pickup_orlanskiS.ckptA.008.010.data
(PID.TID 0000.0001)  MDS_READ_SEC_XZ: opening file: pickup_orlanskiS.ckptA.009.010.data
(PID.TID 0000.0001)  MDS_READ_SEC_XZ: opening file: pickup_orlanskiS.ckptA.010.010.data
(PID.TID 0000.0001)  MDS_READ_SEC_XZ: opening file: pickup_orlanskiS.ckptA.011.010.data
(PID.TID 0000.0001)  MDS_READ_SEC_XZ: opening file: pickup_orlanskiS.ckptA.012.010.data
(PID.TID 0000.0001)  MDS_READ_SEC_XZ: opening file: pickup_orlanskiS.ckptA.013.010.data
(PID.TID 0000.0001)  MDS_READ_SEC_XZ: opening file: pickup_orlanskiS.ckptA.014.010.data
(PID.TID 0000.0001)  MDS_READ_SEC_XZ: opening file: pickup_orlanskiS.ckptA.015.010.data
(PID.TID 0000.0001)  MDS_READ_SEC_XZ: opening file: pickup_orlanskiS.ckptA.001.011.data
(PID.TID 0000.0001)  MDS_READ_SEC_XZ: opening file: pickup_orlanskiS.ckptA.002.011.data
(PID.TID 0000.0001)  MDS_READ_SEC_XZ: opening file: pickup_orlanskiS.ckptA.003.011.data
(PID.TID 0000.0001)  MDS_READ_SEC_XZ: opening file: pickup_orlanskiS.ckptA.004.011.data
(PID.TID 0000.0001)  MDS_READ_SEC_XZ: opening file: pickup_orlanskiS.ckptA.005.011.data
(PID.TID 0000.0001)  MDS_READ_SEC_XZ: opening file: pickup_orlanskiS.ckptA.006.011.data
(PID.TID 0000.0001)  MDS_READ_SEC_XZ: opening file: pickup_orlanskiS.ckptA.007.011.data
(PID.TID 0000.0001)  MDS_READ_SEC_XZ: opening file: pickup_orlanskiS.ckptA.008.011.data
(PID.TID 0000.0001)  MDS_READ_SEC_XZ: opening file: pickup_orlanskiS.ckptA.009.011.data
(PID.TID 0000.0001)  MDS_READ_SEC_XZ: opening file: pickup_orlanskiS.ckptA.010.011.data
(PID.TID 0000.0001)  MDS_READ_SEC_XZ: opening file: pickup_orlanskiS.ckptA.011.011.data
(PID.TID 0000.0001)  MDS_READ_SEC_XZ: opening file: pickup_orlanskiS.ckptA.012.011.data
(PID.TID 0000.0001)  MDS_READ_SEC_XZ: opening file: pickup_orlanskiS.ckptA.013.011.data
(PID.TID 0000.0001)  MDS_READ_SEC_XZ: opening file: pickup_orlanskiS.ckptA.014.011.data
(PID.TID 0000.0001)  MDS_READ_SEC_XZ: opening file: pickup_orlanskiS.ckptA.015.011.data
(PID.TID 0000.0001)  MDS_READ_SEC_XZ: opening file: pickup_orlanskiS.ckptA.001.012.data
(PID.TID 0000.0001)  MDS_READ_SEC_XZ: opening file: pickup_orlanskiS.ckptA.002.012.data
(PID.TID 0000.0001)  MDS_READ_SEC_XZ: opening file: pickup_orlanskiS.ckptA.003.012.data
(PID.TID 0000.0001)  MDS_READ_SEC_XZ: opening file: pickup_orlanskiS.ckptA.004.012.data
(PID.TID 0000.0001)  MDS_READ_SEC_XZ: opening file: pickup_orlanskiS.ckptA.005.012.data
(PID.TID 0000.0001)  MDS_READ_SEC_XZ: opening file: pickup_orlanskiS.ckptA.006.012.data
(PID.TID 0000.0001)  MDS_READ_SEC_XZ: opening file: pickup_orlanskiS.ckptA.007.012.data
(PID.TID 0000.0001)  MDS_READ_SEC_XZ: opening file: pickup_orlanskiS.ckptA.008.012.data
(PID.TID 0000.0001)  MDS_READ_SEC_XZ: opening file: pickup_orlanskiS.ckptA.009.012.data
(PID.TID 0000.0001)  MDS_READ_SEC_XZ: opening file: pickup_orlanskiS.ckptA.010.012.data
(PID.TID 0000.0001)  MDS_READ_SEC_XZ: opening file: pickup_orlanskiS.ckptA.011.012.data
(PID.TID 0000.0001)  MDS_READ_SEC_XZ: opening file: pickup_orlanskiS.ckptA.012.012.data
(PID.TID 0000.0001)  MDS_READ_SEC_XZ: opening file: pickup_orlanskiS.ckptA.013.012.data
(PID.TID 0000.0001)  MDS_READ_SEC_XZ: opening file: pickup_orlanskiS.ckptA.014.012.data
(PID.TID 0000.0001)  MDS_READ_SEC_XZ: opening file: pickup_orlanskiS.ckptA.015.012.data
(PID.TID 0000.0001)  MDS_READ_SEC_XZ: opening file: pickup_orlanskiS.ckptA.001.013.data
(PID.TID 0000.0001)  MDS_READ_SEC_XZ: opening file: pickup_orlanskiS.ckptA.002.013.data
(PID.TID 0000.0001)  MDS_READ_SEC_XZ: opening file: pickup_orlanskiS.ckptA.003.013.data
(PID.TID 0000.0001)  MDS_READ_SEC_XZ: opening file: pickup_orlanskiS.ckptA.004.013.data
(PID.TID 0000.0001)  MDS_READ_SEC_XZ: opening file: pickup_orlanskiS.ckptA.005.013.data
(PID.TID 0000.0001)  MDS_READ_SEC_XZ: opening file: pickup_orlanskiS.ckptA.006.013.data
(PID.TID 0000.0001)  MDS_READ_SEC_XZ: opening file: pickup_orlanskiS.ckptA.007.013.data
(PID.TID 0000.0001)  MDS_READ_SEC_XZ: opening file: pickup_orlanskiS.ckptA.008.013.data
(PID.TID 0000.0001)  MDS_READ_SEC_XZ: opening file: pickup_orlanskiS.ckptA.009.013.data
(PID.TID 0000.0001)  MDS_READ_SEC_XZ: opening file: pickup_orlanskiS.ckptA.010.013.data
(PID.TID 0000.0001)  MDS_READ_SEC_XZ: opening file: pickup_orlanskiS.ckptA.011.013.data
(PID.TID 0000.0001)  MDS_READ_SEC_XZ: opening file: pickup_orlanskiS.ckptA.012.013.data
(PID.TID 0000.0001)  MDS_READ_SEC_XZ: opening file: pickup_orlanskiS.ckptA.013.013.data
(PID.TID 0000.0001)  MDS_READ_SEC_XZ: opening file: pickup_orlanskiS.ckptA.014.013.data
(PID.TID 0000.0001)  MDS_READ_SEC_XZ: opening file: pickup_orlanskiS.ckptA.015.013.data
(PID.TID 0000.0001)  MDS_READ_SEC_XZ: opening file: pickup_orlanskiS.ckptA.001.014.data
(PID.TID 0000.0001)  MDS_READ_SEC_XZ: opening file: pickup_orlanskiS.ckptA.002.014.data
(PID.TID 0000.0001)  MDS_READ_SEC_XZ: opening file: pickup_orlanskiS.ckptA.003.014.data
(PID.TID 0000.0001)  MDS_READ_SEC_XZ: opening file: pickup_orlanskiS.ckptA.004.014.data
(PID.TID 0000.0001)  MDS_READ_SEC_XZ: opening file: pickup_orlanskiS.ckptA.005.014.data
(PID.TID 0000.0001)  MDS_READ_SEC_XZ: opening file: pickup_orlanskiS.ckptA.006.014.data
(PID.TID 0000.0001)  MDS_READ_SEC_XZ: opening file: pickup_orlanskiS.ckptA.007.014.data
(PID.TID 0000.0001)  MDS_READ_SEC_XZ: opening file: pickup_orlanskiS.ckptA.008.014.data
(PID.TID 0000.0001)  MDS_READ_SEC_XZ: opening file: pickup_orlanskiS.ckptA.009.014.data
(PID.TID 0000.0001)  MDS_READ_SEC_XZ: opening file: pickup_orlanskiS.ckptA.010.014.data
(PID.TID 0000.0001)  MDS_READ_SEC_XZ: opening file: pickup_orlanskiS.ckptA.011.014.data
(PID.TID 0000.0001)  MDS_READ_SEC_XZ: opening file: pickup_orlanskiS.ckptA.012.014.data
(PID.TID 0000.0001)  MDS_READ_SEC_XZ: opening file: pickup_orlanskiS.ckptA.013.014.data
(PID.TID 0000.0001)  MDS_READ_SEC_XZ: opening file: pickup_orlanskiS.ckptA.014.014.data
(PID.TID 0000.0001)  MDS_READ_SEC_XZ: opening file: pickup_orlanskiS.ckptA.015.014.data
(PID.TID 0000.0001)  MDS_READ_SEC_XZ: opening file: pickup_orlanskiS.ckptA.001.015.data
(PID.TID 0000.0001)  MDS_READ_SEC_XZ: opening file: pickup_orlanskiS.ckptA.002.015.data
(PID.TID 0000.0001)  MDS_READ_SEC_XZ: opening file: pickup_orlanskiS.ckptA.003.015.data
(PID.TID 0000.0001)  MDS_READ_SEC_XZ: opening file: pickup_orlanskiS.ckptA.004.015.data
(PID.TID 0000.0001)  MDS_READ_SEC_XZ: opening file: pickup_orlanskiS.ckptA.005.015.data
(PID.TID 0000.0001)  MDS_READ_SEC_XZ: opening file: pickup_orlanskiS.ckptA.006.015.data
(PID.TID 0000.0001)  MDS_READ_SEC_XZ: opening file: pickup_orlanskiS.ckptA.007.015.data
(PID.TID 0000.0001)  MDS_READ_SEC_XZ: opening file: pickup_orlanskiS.ckptA.008.015.data
(PID.TID 0000.0001)  MDS_READ_SEC_XZ: opening file: pickup_orlanskiS.ckptA.009.015.data
(PID.TID 0000.0001)  MDS_READ_SEC_XZ: opening file: pickup_orlanskiS.ckptA.010.015.data
(PID.TID 0000.0001)  MDS_READ_SEC_XZ: opening file: pickup_orlanskiS.ckptA.011.015.data
(PID.TID 0000.0001)  MDS_READ_SEC_XZ: opening file: pickup_orlanskiS.ckptA.012.015.data
(PID.TID 0000.0001)  MDS_READ_SEC_XZ: opening file: pickup_orlanskiS.ckptA.013.015.data
(PID.TID 0000.0001)  MDS_READ_SEC_XZ: opening file: pickup_orlanskiS.ckptA.014.015.data
(PID.TID 0000.0001)  MDS_READ_SEC_XZ: opening file: pickup_orlanskiS.ckptA.015.015.data
(PID.TID 0000.0001)  MDS_READ_SEC_XZ: opening file: pickup_orlanskiS.ckptA.001.001.data
(PID.TID 0000.0001)  MDS_READ_SEC_XZ: opening file: pickup_orlanskiS.ckptA.002.001.data
(PID.TID 0000.0001)  MDS_READ_SEC_XZ: opening file: pickup_orlanskiS.ckptA.003.001.data
(PID.TID 0000.0001)  MDS_READ_SEC_XZ: opening file: pickup_orlanskiS.ckptA.004.001.data
(PID.TID 0000.0001)  MDS_READ_SEC_XZ: opening file: pickup_orlanskiS.ckptA.005.001.data
(PID.TID 0000.0001)  MDS_READ_SEC_XZ: opening file: pickup_orlanskiS.ckptA.006.001.data
(PID.TID 0000.0001)  MDS_READ_SEC_XZ: opening file: pickup_orlanskiS.ckptA.007.001.data
(PID.TID 0000.0001)  MDS_READ_SEC_XZ: opening file: pickup_orlanskiS.ckptA.008.001.data
(PID.TID 0000.0001)  MDS_READ_SEC_XZ: opening file: pickup_orlanskiS.ckptA.009.001.data
(PID.TID 0000.0001)  MDS_READ_SEC_XZ: opening file: pickup_orlanskiS.ckptA.010.001.data
(PID.TID 0000.0001)  MDS_READ_SEC_XZ: opening file: pickup_orlanskiS.ckptA.011.001.data
(PID.TID 0000.0001)  MDS_READ_SEC_XZ: opening file: pickup_orlanskiS.ckptA.012.001.data
(PID.TID 0000.0001)  MDS_READ_SEC_XZ: opening file: pickup_orlanskiS.ckptA.013.001.data
(PID.TID 0000.0001)  MDS_READ_SEC_XZ: opening file: pickup_orlanskiS.ckptA.014.001.data
(PID.TID 0000.0001)  MDS_READ_SEC_XZ: opening file: pickup_orlanskiS.ckptA.015.001.data
(PID.TID 0000.0001)  MDS_READ_SEC_XZ: opening file: pickup_orlanskiS.ckptA.001.002.data
(PID.TID 0000.0001)  MDS_READ_SEC_XZ: opening file: pickup_orlanskiS.ckptA.002.002.data
(PID.TID 0000.0001)  MDS_READ_SEC_XZ: opening file: pickup_orlanskiS.ckptA.003.002.data
(PID.TID 0000.0001)  MDS_READ_SEC_XZ: opening file: pickup_orlanskiS.ckptA.004.002.data
(PID.TID 0000.0001)  MDS_READ_SEC_XZ: opening file: pickup_orlanskiS.ckptA.005.002.data
(PID.TID 0000.0001)  MDS_READ_SEC_XZ: opening file: pickup_orlanskiS.ckptA.006.002.data
(PID.TID 0000.0001)  MDS_READ_SEC_XZ: opening file: pickup_orlanskiS.ckptA.007.002.data
(PID.TID 0000.0001)  MDS_READ_SEC_XZ: opening file: pickup_orlanskiS.ckptA.008.002.data
(PID.TID 0000.0001)  MDS_READ_SEC_XZ: opening file: pickup_orlanskiS.ckptA.009.002.data
(PID.TID 0000.0001)  MDS_READ_SEC_XZ: opening file: pickup_orlanskiS.ckptA.010.002.data
(PID.TID 0000.0001)  MDS_READ_SEC_XZ: opening file: pickup_orlanskiS.ckptA.011.002.data
(PID.TID 0000.0001)  MDS_READ_SEC_XZ: opening file: pickup_orlanskiS.ckptA.012.002.data
(PID.TID 0000.0001)  MDS_READ_SEC_XZ: opening file: pickup_orlanskiS.ckptA.013.002.data
(PID.TID 0000.0001)  MDS_READ_SEC_XZ: opening file: pickup_orlanskiS.ckptA.014.002.data
(PID.TID 0000.0001)  MDS_READ_SEC_XZ: opening file: pickup_orlanskiS.ckptA.015.002.data
(PID.TID 0000.0001)  MDS_READ_SEC_XZ: opening file: pickup_orlanskiS.ckptA.001.003.data
(PID.TID 0000.0001)  MDS_READ_SEC_XZ: opening file: pickup_orlanskiS.ckptA.002.003.data
(PID.TID 0000.0001)  MDS_READ_SEC_XZ: opening file: pickup_orlanskiS.ckptA.003.003.data
(PID.TID 0000.0001)  MDS_READ_SEC_XZ: opening file: pickup_orlanskiS.ckptA.004.003.data
(PID.TID 0000.0001)  MDS_READ_SEC_XZ: opening file: pickup_orlanskiS.ckptA.005.003.data
(PID.TID 0000.0001)  MDS_READ_SEC_XZ: opening file: pickup_orlanskiS.ckptA.006.003.data
(PID.TID 0000.0001)  MDS_READ_SEC_XZ: opening file: pickup_orlanskiS.ckptA.007.003.data
(PID.TID 0000.0001)  MDS_READ_SEC_XZ: opening file: pickup_orlanskiS.ckptA.008.003.data
(PID.TID 0000.0001)  MDS_READ_SEC_XZ: opening file: pickup_orlanskiS.ckptA.009.003.data
(PID.TID 0000.0001)  MDS_READ_SEC_XZ: opening file: pickup_orlanskiS.ckptA.010.003.data
(PID.TID 0000.0001)  MDS_READ_SEC_XZ: opening file: pickup_orlanskiS.ckptA.011.003.data
(PID.TID 0000.0001)  MDS_READ_SEC_XZ: opening file: pickup_orlanskiS.ckptA.012.003.data
(PID.TID 0000.0001)  MDS_READ_SEC_XZ: opening file: pickup_orlanskiS.ckptA.013.003.data
(PID.TID 0000.0001)  MDS_READ_SEC_XZ: opening file: pickup_orlanskiS.ckptA.014.003.data
(PID.TID 0000.0001)  MDS_READ_SEC_XZ: opening file: pickup_orlanskiS.ckptA.015.003.data
(PID.TID 0000.0001)  MDS_READ_SEC_XZ: opening file: pickup_orlanskiS.ckptA.001.004.data
(PID.TID 0000.0001)  MDS_READ_SEC_XZ: opening file: pickup_orlanskiS.ckptA.002.004.data
(PID.TID 0000.0001)  MDS_READ_SEC_XZ: opening file: pickup_orlanskiS.ckptA.003.004.data
(PID.TID 0000.0001)  MDS_READ_SEC_XZ: opening file: pickup_orlanskiS.ckptA.004.004.data
(PID.TID 0000.0001)  MDS_READ_SEC_XZ: opening file: pickup_orlanskiS.ckptA.005.004.data
(PID.TID 0000.0001)  MDS_READ_SEC_XZ: opening file: pickup_orlanskiS.ckptA.006.004.data
(PID.TID 0000.0001)  MDS_READ_SEC_XZ: opening file: pickup_orlanskiS.ckptA.007.004.data
(PID.TID 0000.0001)  MDS_READ_SEC_XZ: opening file: pickup_orlanskiS.ckptA.008.004.data
(PID.TID 0000.0001)  MDS_READ_SEC_XZ: opening file: pickup_orlanskiS.ckptA.009.004.data
(PID.TID 0000.0001)  MDS_READ_SEC_XZ: opening file: pickup_orlanskiS.ckptA.010.004.data
(PID.TID 0000.0001)  MDS_READ_SEC_XZ: opening file: pickup_orlanskiS.ckptA.011.004.data
(PID.TID 0000.0001)  MDS_READ_SEC_XZ: opening file: pickup_orlanskiS.ckptA.012.004.data
(PID.TID 0000.0001)  MDS_READ_SEC_XZ: opening file: pickup_orlanskiS.ckptA.013.004.data
(PID.TID 0000.0001)  MDS_READ_SEC_XZ: opening file: pickup_orlanskiS.ckptA.014.004.data
(PID.TID 0000.0001)  MDS_READ_SEC_XZ: opening file: pickup_orlanskiS.ckptA.015.004.data
(PID.TID 0000.0001)  MDS_READ_SEC_XZ: opening file: pickup_orlanskiS.ckptA.001.005.data
(PID.TID 0000.0001)  MDS_READ_SEC_XZ: opening file: pickup_orlanskiS.ckptA.002.005.data
(PID.TID 0000.0001)  MDS_READ_SEC_XZ: opening file: pickup_orlanskiS.ckptA.003.005.data
(PID.TID 0000.0001)  MDS_READ_SEC_XZ: opening file: pickup_orlanskiS.ckptA.004.005.data
(PID.TID 0000.0001)  MDS_READ_SEC_XZ: opening file: pickup_orlanskiS.ckptA.005.005.data
(PID.TID 0000.0001)  MDS_READ_SEC_XZ: opening file: pickup_orlanskiS.ckptA.006.005.data
(PID.TID 0000.0001)  MDS_READ_SEC_XZ: opening file: pickup_orlanskiS.ckptA.007.005.data
(PID.TID 0000.0001)  MDS_READ_SEC_XZ: opening file: pickup_orlanskiS.ckptA.008.005.data
(PID.TID 0000.0001)  MDS_READ_SEC_XZ: opening file: pickup_orlanskiS.ckptA.009.005.data
(PID.TID 0000.0001)  MDS_READ_SEC_XZ: opening file: pickup_orlanskiS.ckptA.010.005.data
(PID.TID 0000.0001)  MDS_READ_SEC_XZ: opening file: pickup_orlanskiS.ckptA.011.005.data
(PID.TID 0000.0001)  MDS_READ_SEC_XZ: opening file: pickup_orlanskiS.ckptA.012.005.data
(PID.TID 0000.0001)  MDS_READ_SEC_XZ: opening file: pickup_orlanskiS.ckptA.013.005.data
(PID.TID 0000.0001)  MDS_READ_SEC_XZ: opening file: pickup_orlanskiS.ckptA.014.005.data
(PID.TID 0000.0001)  MDS_READ_SEC_XZ: opening file: pickup_orlanskiS.ckptA.015.005.data
(PID.TID 0000.0001)  MDS_READ_SEC_XZ: opening file: pickup_orlanskiS.ckptA.001.006.data
(PID.TID 0000.0001)  MDS_READ_SEC_XZ: opening file: pickup_orlanskiS.ckptA.002.006.data
(PID.TID 0000.0001)  MDS_READ_SEC_XZ: opening file: pickup_orlanskiS.ckptA.003.006.data
(PID.TID 0000.0001)  MDS_READ_SEC_XZ: opening file: pickup_orlanskiS.ckptA.004.006.data
(PID.TID 0000.0001)  MDS_READ_SEC_XZ: opening file: pickup_orlanskiS.ckptA.005.006.data
(PID.TID 0000.0001)  MDS_READ_SEC_XZ: opening file: pickup_orlanskiS.ckptA.006.006.data
(PID.TID 0000.0001)  MDS_READ_SEC_XZ: opening file: pickup_orlanskiS.ckptA.007.006.data
(PID.TID 0000.0001)  MDS_READ_SEC_XZ: opening file: pickup_orlanskiS.ckptA.008.006.data
(PID.TID 0000.0001)  MDS_READ_SEC_XZ: opening file: pickup_orlanskiS.ckptA.009.006.data
(PID.TID 0000.0001)  MDS_READ_SEC_XZ: opening file: pickup_orlanskiS.ckptA.010.006.data
(PID.TID 0000.0001)  MDS_READ_SEC_XZ: opening file: pickup_orlanskiS.ckptA.011.006.data
(PID.TID 0000.0001)  MDS_READ_SEC_XZ: opening file: pickup_orlanskiS.ckptA.012.006.data
(PID.TID 0000.0001)  MDS_READ_SEC_XZ: opening file: pickup_orlanskiS.ckptA.013.006.data
(PID.TID 0000.0001)  MDS_READ_SEC_XZ: opening file: pickup_orlanskiS.ckptA.014.006.data
(PID.TID 0000.0001)  MDS_READ_SEC_XZ: opening file: pickup_orlanskiS.ckptA.015.006.data
(PID.TID 0000.0001)  MDS_READ_SEC_XZ: opening file: pickup_orlanskiS.ckptA.001.007.data
(PID.TID 0000.0001)  MDS_READ_SEC_XZ: opening file: pickup_orlanskiS.ckptA.002.007.data
(PID.TID 0000.0001)  MDS_READ_SEC_XZ: opening file: pickup_orlanskiS.ckptA.003.007.data
(PID.TID 0000.0001)  MDS_READ_SEC_XZ: opening file: pickup_orlanskiS.ckptA.004.007.data
(PID.TID 0000.0001)  MDS_READ_SEC_XZ: opening file: pickup_orlanskiS.ckptA.005.007.data
(PID.TID 0000.0001)  MDS_READ_SEC_XZ: opening file: pickup_orlanskiS.ckptA.006.007.data
(PID.TID 0000.0001)  MDS_READ_SEC_XZ: opening file: pickup_orlanskiS.ckptA.007.007.data
(PID.TID 0000.0001)  MDS_READ_SEC_XZ: opening file: pickup_orlanskiS.ckptA.008.007.data
(PID.TID 0000.0001)  MDS_READ_SEC_XZ: opening file: pickup_orlanskiS.ckptA.009.007.data
(PID.TID 0000.0001)  MDS_READ_SEC_XZ: opening file: pickup_orlanskiS.ckptA.010.007.data
(PID.TID 0000.0001)  MDS_READ_SEC_XZ: opening file: pickup_orlanskiS.ckptA.011.007.data
(PID.TID 0000.0001)  MDS_READ_SEC_XZ: opening file: pickup_orlanskiS.ckptA.012.007.data
(PID.TID 0000.0001)  MDS_READ_SEC_XZ: opening file: pickup_orlanskiS.ckptA.013.007.data
(PID.TID 0000.0001)  MDS_READ_SEC_XZ: opening file: pickup_orlanskiS.ckptA.014.007.data
(PID.TID 0000.0001)  MDS_READ_SEC_XZ: opening file: pickup_orlanskiS.ckptA.015.007.data
(PID.TID 0000.0001)  MDS_READ_SEC_XZ: opening file: pickup_orlanskiS.ckptA.001.008.data
(PID.TID 0000.0001)  MDS_READ_SEC_XZ: opening file: pickup_orlanskiS.ckptA.002.008.data
(PID.TID 0000.0001)  MDS_READ_SEC_XZ: opening file: pickup_orlanskiS.ckptA.003.008.data
(PID.TID 0000.0001)  MDS_READ_SEC_XZ: opening file: pickup_orlanskiS.ckptA.004.008.data
(PID.TID 0000.0001)  MDS_READ_SEC_XZ: opening file: pickup_orlanskiS.ckptA.005.008.data
(PID.TID 0000.0001)  MDS_READ_SEC_XZ: opening file: pickup_orlanskiS.ckptA.006.008.data
(PID.TID 0000.0001)  MDS_READ_SEC_XZ: opening file: pickup_orlanskiS.ckptA.007.008.data
(PID.TID 0000.0001)  MDS_READ_SEC_XZ: opening file: pickup_orlanskiS.ckptA.008.008.data
(PID.TID 0000.0001)  MDS_READ_SEC_XZ: opening file: pickup_orlanskiS.ckptA.009.008.data
(PID.TID 0000.0001)  MDS_READ_SEC_XZ: opening file: pickup_orlanskiS.ckptA.010.008.data
(PID.TID 0000.0001)  MDS_READ_SEC_XZ: opening file: pickup_orlanskiS.ckptA.011.008.data
(PID.TID 0000.0001)  MDS_READ_SEC_XZ: opening file: pickup_orlanskiS.ckptA.012.008.data
(PID.TID 0000.0001)  MDS_READ_SEC_XZ: opening file: pickup_orlanskiS.ckptA.013.008.data
(PID.TID 0000.0001)  MDS_READ_SEC_XZ: opening file: pickup_orlanskiS.ckptA.014.008.data
(PID.TID 0000.0001)  MDS_READ_SEC_XZ: opening file: pickup_orlanskiS.ckptA.015.008.data
(PID.TID 0000.0001)  MDS_READ_SEC_XZ: opening file: pickup_orlanskiS.ckptA.001.009.data
(PID.TID 0000.0001)  MDS_READ_SEC_XZ: opening file: pickup_orlanskiS.ckptA.002.009.data
(PID.TID 0000.0001)  MDS_READ_SEC_XZ: opening file: pickup_orlanskiS.ckptA.003.009.data
(PID.TID 0000.0001)  MDS_READ_SEC_XZ: opening file: pickup_orlanskiS.ckptA.004.009.data
(PID.TID 0000.0001)  MDS_READ_SEC_XZ: opening file: pickup_orlanskiS.ckptA.005.009.data
(PID.TID 0000.0001)  MDS_READ_SEC_XZ: opening file: pickup_orlanskiS.ckptA.006.009.data
(PID.TID 0000.0001)  MDS_READ_SEC_XZ: opening file: pickup_orlanskiS.ckptA.007.009.data
(PID.TID 0000.0001)  MDS_READ_SEC_XZ: opening file: pickup_orlanskiS.ckptA.008.009.data
(PID.TID 0000.0001)  MDS_READ_SEC_XZ: opening file: pickup_orlanskiS.ckptA.009.009.data
(PID.TID 0000.0001)  MDS_READ_SEC_XZ: opening file: pickup_orlanskiS.ckptA.010.009.data
(PID.TID 0000.0001)  MDS_READ_SEC_XZ: opening file: pickup_orlanskiS.ckptA.011.009.data
(PID.TID 0000.0001)  MDS_READ_SEC_XZ: opening file: pickup_orlanskiS.ckptA.012.009.data
(PID.TID 0000.0001)  MDS_READ_SEC_XZ: opening file: pickup_orlanskiS.ckptA.013.009.data
(PID.TID 0000.0001)  MDS_READ_SEC_XZ: opening file: pickup_orlanskiS.ckptA.014.009.data
(PID.TID 0000.0001)  MDS_READ_SEC_XZ: opening file: pickup_orlanskiS.ckptA.015.009.data
(PID.TID 0000.0001)  MDS_READ_SEC_XZ: opening file: pickup_orlanskiS.ckptA.001.010.data
(PID.TID 0000.0001)  MDS_READ_SEC_XZ: opening file: pickup_orlanskiS.ckptA.002.010.data
(PID.TID 0000.0001)  MDS_READ_SEC_XZ: opening file: pickup_orlanskiS.ckptA.003.010.data
(PID.TID 0000.0001)  MDS_READ_SEC_XZ: opening file: pickup_orlanskiS.ckptA.004.010.data
(PID.TID 0000.0001)  MDS_READ_SEC_XZ: opening file: pickup_orlanskiS.ckptA.005.010.data
(PID.TID 0000.0001)  MDS_READ_SEC_XZ: opening file: pickup_orlanskiS.ckptA.006.010.data
(PID.TID 0000.0001)  MDS_READ_SEC_XZ: opening file: pickup_orlanskiS.ckptA.007.010.data
(PID.TID 0000.0001)  MDS_READ_SEC_XZ: opening file: pickup_orlanskiS.ckptA.008.010.data
(PID.TID 0000.0001)  MDS_READ_SEC_XZ: opening file: pickup_orlanskiS.ckptA.009.010.data
(PID.TID 0000.0001)  MDS_READ_SEC_XZ: opening file: pickup_orlanskiS.ckptA.010.010.data
(PID.TID 0000.0001)  MDS_READ_SEC_XZ: opening file: pickup_orlanskiS.ckptA.011.010.data
(PID.TID 0000.0001)  MDS_READ_SEC_XZ: opening file: pickup_orlanskiS.ckptA.012.010.data
(PID.TID 0000.0001)  MDS_READ_SEC_XZ: opening file: pickup_orlanskiS.ckptA.013.010.data
(PID.TID 0000.0001)  MDS_READ_SEC_XZ: opening file: pickup_orlanskiS.ckptA.014.010.data
(PID.TID 0000.0001)  MDS_READ_SEC_XZ: opening file: pickup_orlanskiS.ckptA.015.010.data
(PID.TID 0000.0001)  MDS_READ_SEC_XZ: opening file: pickup_orlanskiS.ckptA.001.011.data
(PID.TID 0000.0001)  MDS_READ_SEC_XZ: opening file: pickup_orlanskiS.ckptA.002.011.data
(PID.TID 0000.0001)  MDS_READ_SEC_XZ: opening file: pickup_orlanskiS.ckptA.003.011.data
(PID.TID 0000.0001)  MDS_READ_SEC_XZ: opening file: pickup_orlanskiS.ckptA.004.011.data
(PID.TID 0000.0001)  MDS_READ_SEC_XZ: opening file: pickup_orlanskiS.ckptA.005.011.data
(PID.TID 0000.0001)  MDS_READ_SEC_XZ: opening file: pickup_orlanskiS.ckptA.006.011.data
(PID.TID 0000.0001)  MDS_READ_SEC_XZ: opening file: pickup_orlanskiS.ckptA.007.011.data
(PID.TID 0000.0001)  MDS_READ_SEC_XZ: opening file: pickup_orlanskiS.ckptA.008.011.data
(PID.TID 0000.0001)  MDS_READ_SEC_XZ: opening file: pickup_orlanskiS.ckptA.009.011.data
(PID.TID 0000.0001)  MDS_READ_SEC_XZ: opening file: pickup_orlanskiS.ckptA.010.011.data
(PID.TID 0000.0001)  MDS_READ_SEC_XZ: opening file: pickup_orlanskiS.ckptA.011.011.data
(PID.TID 0000.0001)  MDS_READ_SEC_XZ: opening file: pickup_orlanskiS.ckptA.012.011.data
(PID.TID 0000.0001)  MDS_READ_SEC_XZ: opening file: pickup_orlanskiS.ckptA.013.011.data
(PID.TID 0000.0001)  MDS_READ_SEC_XZ: opening file: pickup_orlanskiS.ckptA.014.011.data
(PID.TID 0000.0001)  MDS_READ_SEC_XZ: opening file: pickup_orlanskiS.ckptA.015.011.data
(PID.TID 0000.0001)  MDS_READ_SEC_XZ: opening file: pickup_orlanskiS.ckptA.001.012.data
(PID.TID 0000.0001)  MDS_READ_SEC_XZ: opening file: pickup_orlanskiS.ckptA.002.012.data
(PID.TID 0000.0001)  MDS_READ_SEC_XZ: opening file: pickup_orlanskiS.ckptA.003.012.data
(PID.TID 0000.0001)  MDS_READ_SEC_XZ: opening file: pickup_orlanskiS.ckptA.004.012.data
(PID.TID 0000.0001)  MDS_READ_SEC_XZ: opening file: pickup_orlanskiS.ckptA.005.012.data
(PID.TID 0000.0001)  MDS_READ_SEC_XZ: opening file: pickup_orlanskiS.ckptA.006.012.data
(PID.TID 0000.0001)  MDS_READ_SEC_XZ: opening file: pickup_orlanskiS.ckptA.007.012.data
(PID.TID 0000.0001)  MDS_READ_SEC_XZ: opening file: pickup_orlanskiS.ckptA.008.012.data
(PID.TID 0000.0001)  MDS_READ_SEC_XZ: opening file: pickup_orlanskiS.ckptA.009.012.data
(PID.TID 0000.0001)  MDS_READ_SEC_XZ: opening file: pickup_orlanskiS.ckptA.010.012.data
(PID.TID 0000.0001)  MDS_READ_SEC_XZ: opening file: pickup_orlanskiS.ckptA.011.012.data
(PID.TID 0000.0001)  MDS_READ_SEC_XZ: opening file: pickup_orlanskiS.ckptA.012.012.data
(PID.TID 0000.0001)  MDS_READ_SEC_XZ: opening file: pickup_orlanskiS.ckptA.013.012.data
(PID.TID 0000.0001)  MDS_READ_SEC_XZ: opening file: pickup_orlanskiS.ckptA.014.012.data
(PID.TID 0000.0001)  MDS_READ_SEC_XZ: opening file: pickup_orlanskiS.ckptA.015.012.data
(PID.TID 0000.0001)  MDS_READ_SEC_XZ: opening file: pickup_orlanskiS.ckptA.001.013.data
(PID.TID 0000.0001)  MDS_READ_SEC_XZ: opening file: pickup_orlanskiS.ckptA.002.013.data
(PID.TID 0000.0001)  MDS_READ_SEC_XZ: opening file: pickup_orlanskiS.ckptA.003.013.data
(PID.TID 0000.0001)  MDS_READ_SEC_XZ: opening file: pickup_orlanskiS.ckptA.004.013.data
(PID.TID 0000.0001)  MDS_READ_SEC_XZ: opening file: pickup_orlanskiS.ckptA.005.013.data
(PID.TID 0000.0001)  MDS_READ_SEC_XZ: opening file: pickup_orlanskiS.ckptA.006.013.data
(PID.TID 0000.0001)  MDS_READ_SEC_XZ: opening file: pickup_orlanskiS.ckptA.007.013.data
(PID.TID 0000.0001)  MDS_READ_SEC_XZ: opening file: pickup_orlanskiS.ckptA.008.013.data
(PID.TID 0000.0001)  MDS_READ_SEC_XZ: opening file: pickup_orlanskiS.ckptA.009.013.data
(PID.TID 0000.0001)  MDS_READ_SEC_XZ: opening file: pickup_orlanskiS.ckptA.010.013.data
(PID.TID 0000.0001)  MDS_READ_SEC_XZ: opening file: pickup_orlanskiS.ckptA.011.013.data
(PID.TID 0000.0001)  MDS_READ_SEC_XZ: opening file: pickup_orlanskiS.ckptA.012.013.data
(PID.TID 0000.0001)  MDS_READ_SEC_XZ: opening file: pickup_orlanskiS.ckptA.013.013.data
(PID.TID 0000.0001)  MDS_READ_SEC_XZ: opening file: pickup_orlanskiS.ckptA.014.013.data
(PID.TID 0000.0001)  MDS_READ_SEC_XZ: opening file: pickup_orlanskiS.ckptA.015.013.data
(PID.TID 0000.0001)  MDS_READ_SEC_XZ: opening file: pickup_orlanskiS.ckptA.001.014.data
(PID.TID 0000.0001)  MDS_READ_SEC_XZ: opening file: pickup_orlanskiS.ckptA.002.014.data
(PID.TID 0000.0001)  MDS_READ_SEC_XZ: opening file: pickup_orlanskiS.ckptA.003.014.data
(PID.TID 0000.0001)  MDS_READ_SEC_XZ: opening file: pickup_orlanskiS.ckptA.004.014.data
(PID.TID 0000.0001)  MDS_READ_SEC_XZ: opening file: pickup_orlanskiS.ckptA.005.014.data
(PID.TID 0000.0001)  MDS_READ_SEC_XZ: opening file: pickup_orlanskiS.ckptA.006.014.data
(PID.TID 0000.0001)  MDS_READ_SEC_XZ: opening file: pickup_orlanskiS.ckptA.007.014.data
(PID.TID 0000.0001)  MDS_READ_SEC_XZ: opening file: pickup_orlanskiS.ckptA.008.014.data
(PID.TID 0000.0001)  MDS_READ_SEC_XZ: opening file: pickup_orlanskiS.ckptA.009.014.data
(PID.TID 0000.0001)  MDS_READ_SEC_XZ: opening file: pickup_orlanskiS.ckptA.010.014.data
(PID.TID 0000.0001)  MDS_READ_SEC_XZ: opening file: pickup_orlanskiS.ckptA.011.014.data
(PID.TID 0000.0001)  MDS_READ_SEC_XZ: opening file: pickup_orlanskiS.ckptA.012.014.data
(PID.TID 0000.0001)  MDS_READ_SEC_XZ: opening file: pickup_orlanskiS.ckptA.013.014.data
(PID.TID 0000.0001)  MDS_READ_SEC_XZ: opening file: pickup_orlanskiS.ckptA.014.014.data
(PID.TID 0000.0001)  MDS_READ_SEC_XZ: opening file: pickup_orlanskiS.ckptA.015.014.data
(PID.TID 0000.0001)  MDS_READ_SEC_XZ: opening file: pickup_orlanskiS.ckptA.001.015.data
(PID.TID 0000.0001)  MDS_READ_SEC_XZ: opening file: pickup_orlanskiS.ckptA.002.015.data
(PID.TID 0000.0001)  MDS_READ_SEC_XZ: opening file: pickup_orlanskiS.ckptA.003.015.data
(PID.TID 0000.0001)  MDS_READ_SEC_XZ: opening file: pickup_orlanskiS.ckptA.004.015.data
(PID.TID 0000.0001)  MDS_READ_SEC_XZ: opening file: pickup_orlanskiS.ckptA.005.015.data
(PID.TID 0000.0001)  MDS_READ_SEC_XZ: opening file: pickup_orlanskiS.ckptA.006.015.data
(PID.TID 0000.0001)  MDS_READ_SEC_XZ: opening file: pickup_orlanskiS.ckptA.007.015.data
(PID.TID 0000.0001)  MDS_READ_SEC_XZ: opening file: pickup_orlanskiS.ckptA.008.015.data
(PID.TID 0000.0001)  MDS_READ_SEC_XZ: opening file: pickup_orlanskiS.ckptA.009.015.data
(PID.TID 0000.0001)  MDS_READ_SEC_XZ: opening file: pickup_orlanskiS.ckptA.010.015.data
(PID.TID 0000.0001)  MDS_READ_SEC_XZ: opening file: pickup_orlanskiS.ckptA.011.015.data
(PID.TID 0000.0001)  MDS_READ_SEC_XZ: opening file: pickup_orlanskiS.ckptA.012.015.data
(PID.TID 0000.0001)  MDS_READ_SEC_XZ: opening file: pickup_orlanskiS.ckptA.013.015.data
(PID.TID 0000.0001)  MDS_READ_SEC_XZ: opening file: pickup_orlanskiS.ckptA.014.015.data
(PID.TID 0000.0001)  MDS_READ_SEC_XZ: opening file: pickup_orlanskiS.ckptA.015.015.data
(PID.TID 0000.0001)  MDS_READ_SEC_XZ: opening file: pickup_orlanskiS.ckptA.001.001.data
(PID.TID 0000.0001)  MDS_READ_SEC_XZ: opening file: pickup_orlanskiS.ckptA.002.001.data
(PID.TID 0000.0001)  MDS_READ_SEC_XZ: opening file: pickup_orlanskiS.ckptA.003.001.data
(PID.TID 0000.0001)  MDS_READ_SEC_XZ: opening file: pickup_orlanskiS.ckptA.004.001.data
(PID.TID 0000.0001)  MDS_READ_SEC_XZ: opening file: pickup_orlanskiS.ckptA.005.001.data
(PID.TID 0000.0001)  MDS_READ_SEC_XZ: opening file: pickup_orlanskiS.ckptA.006.001.data
(PID.TID 0000.0001)  MDS_READ_SEC_XZ: opening file: pickup_orlanskiS.ckptA.007.001.data
(PID.TID 0000.0001)  MDS_READ_SEC_XZ: opening file: pickup_orlanskiS.ckptA.008.001.data
(PID.TID 0000.0001)  MDS_READ_SEC_XZ: opening file: pickup_orlanskiS.ckptA.009.001.data
(PID.TID 0000.0001)  MDS_READ_SEC_XZ: opening file: pickup_orlanskiS.ckptA.010.001.data
(PID.TID 0000.0001)  MDS_READ_SEC_XZ: opening file: pickup_orlanskiS.ckptA.011.001.data
(PID.TID 0000.0001)  MDS_READ_SEC_XZ: opening file: pickup_orlanskiS.ckptA.012.001.data
(PID.TID 0000.0001)  MDS_READ_SEC_XZ: opening file: pickup_orlanskiS.ckptA.013.001.data
(PID.TID 0000.0001)  MDS_READ_SEC_XZ: opening file: pickup_orlanskiS.ckptA.014.001.data
(PID.TID 0000.0001)  MDS_READ_SEC_XZ: opening file: pickup_orlanskiS.ckptA.015.001.data
(PID.TID 0000.0001)  MDS_READ_SEC_XZ: opening file: pickup_orlanskiS.ckptA.001.002.data
(PID.TID 0000.0001)  MDS_READ_SEC_XZ: opening file: pickup_orlanskiS.ckptA.002.002.data
(PID.TID 0000.0001)  MDS_READ_SEC_XZ: opening file: pickup_orlanskiS.ckptA.003.002.data
(PID.TID 0000.0001)  MDS_READ_SEC_XZ: opening file: pickup_orlanskiS.ckptA.004.002.data
(PID.TID 0000.0001)  MDS_READ_SEC_XZ: opening file: pickup_orlanskiS.ckptA.005.002.data
(PID.TID 0000.0001)  MDS_READ_SEC_XZ: opening file: pickup_orlanskiS.ckptA.006.002.data
(PID.TID 0000.0001)  MDS_READ_SEC_XZ: opening file: pickup_orlanskiS.ckptA.007.002.data
(PID.TID 0000.0001)  MDS_READ_SEC_XZ: opening file: pickup_orlanskiS.ckptA.008.002.data
(PID.TID 0000.0001)  MDS_READ_SEC_XZ: opening file: pickup_orlanskiS.ckptA.009.002.data
(PID.TID 0000.0001)  MDS_READ_SEC_XZ: opening file: pickup_orlanskiS.ckptA.010.002.data
(PID.TID 0000.0001)  MDS_READ_SEC_XZ: opening file: pickup_orlanskiS.ckptA.011.002.data
(PID.TID 0000.0001)  MDS_READ_SEC_XZ: opening file: pickup_orlanskiS.ckptA.012.002.data
(PID.TID 0000.0001)  MDS_READ_SEC_XZ: opening file: pickup_orlanskiS.ckptA.013.002.data
(PID.TID 0000.0001)  MDS_READ_SEC_XZ: opening file: pickup_orlanskiS.ckptA.014.002.data
(PID.TID 0000.0001)  MDS_READ_SEC_XZ: opening file: pickup_orlanskiS.ckptA.015.002.data
(PID.TID 0000.0001)  MDS_READ_SEC_XZ: opening file: pickup_orlanskiS.ckptA.001.003.data
(PID.TID 0000.0001)  MDS_READ_SEC_XZ: opening file: pickup_orlanskiS.ckptA.002.003.data
(PID.TID 0000.0001)  MDS_READ_SEC_XZ: opening file: pickup_orlanskiS.ckptA.003.003.data
(PID.TID 0000.0001)  MDS_READ_SEC_XZ: opening file: pickup_orlanskiS.ckptA.004.003.data
(PID.TID 0000.0001)  MDS_READ_SEC_XZ: opening file: pickup_orlanskiS.ckptA.005.003.data
(PID.TID 0000.0001)  MDS_READ_SEC_XZ: opening file: pickup_orlanskiS.ckptA.006.003.data
(PID.TID 0000.0001)  MDS_READ_SEC_XZ: opening file: pickup_orlanskiS.ckptA.007.003.data
(PID.TID 0000.0001)  MDS_READ_SEC_XZ: opening file: pickup_orlanskiS.ckptA.008.003.data
(PID.TID 0000.0001)  MDS_READ_SEC_XZ: opening file: pickup_orlanskiS.ckptA.009.003.data
(PID.TID 0000.0001)  MDS_READ_SEC_XZ: opening file: pickup_orlanskiS.ckptA.010.003.data
(PID.TID 0000.0001)  MDS_READ_SEC_XZ: opening file: pickup_orlanskiS.ckptA.011.003.data
(PID.TID 0000.0001)  MDS_READ_SEC_XZ: opening file: pickup_orlanskiS.ckptA.012.003.data
(PID.TID 0000.0001)  MDS_READ_SEC_XZ: opening file: pickup_orlanskiS.ckptA.013.003.data
(PID.TID 0000.0001)  MDS_READ_SEC_XZ: opening file: pickup_orlanskiS.ckptA.014.003.data
(PID.TID 0000.0001)  MDS_READ_SEC_XZ: opening file: pickup_orlanskiS.ckptA.015.003.data
(PID.TID 0000.0001)  MDS_READ_SEC_XZ: opening file: pickup_orlanskiS.ckptA.001.004.data
(PID.TID 0000.0001)  MDS_READ_SEC_XZ: opening file: pickup_orlanskiS.ckptA.002.004.data
(PID.TID 0000.0001)  MDS_READ_SEC_XZ: opening file: pickup_orlanskiS.ckptA.003.004.data
(PID.TID 0000.0001)  MDS_READ_SEC_XZ: opening file: pickup_orlanskiS.ckptA.004.004.data
(PID.TID 0000.0001)  MDS_READ_SEC_XZ: opening file: pickup_orlanskiS.ckptA.005.004.data
(PID.TID 0000.0001)  MDS_READ_SEC_XZ: opening file: pickup_orlanskiS.ckptA.006.004.data
(PID.TID 0000.0001)  MDS_READ_SEC_XZ: opening file: pickup_orlanskiS.ckptA.007.004.data
(PID.TID 0000.0001)  MDS_READ_SEC_XZ: opening file: pickup_orlanskiS.ckptA.008.004.data
(PID.TID 0000.0001)  MDS_READ_SEC_XZ: opening file: pickup_orlanskiS.ckptA.009.004.data
(PID.TID 0000.0001)  MDS_READ_SEC_XZ: opening file: pickup_orlanskiS.ckptA.010.004.data
(PID.TID 0000.0001)  MDS_READ_SEC_XZ: opening file: pickup_orlanskiS.ckptA.011.004.data
(PID.TID 0000.0001)  MDS_READ_SEC_XZ: opening file: pickup_orlanskiS.ckptA.012.004.data
(PID.TID 0000.0001)  MDS_READ_SEC_XZ: opening file: pickup_orlanskiS.ckptA.013.004.data
(PID.TID 0000.0001)  MDS_READ_SEC_XZ: opening file: pickup_orlanskiS.ckptA.014.004.data
(PID.TID 0000.0001)  MDS_READ_SEC_XZ: opening file: pickup_orlanskiS.ckptA.015.004.data
(PID.TID 0000.0001)  MDS_READ_SEC_XZ: opening file: pickup_orlanskiS.ckptA.001.005.data
(PID.TID 0000.0001)  MDS_READ_SEC_XZ: opening file: pickup_orlanskiS.ckptA.002.005.data
(PID.TID 0000.0001)  MDS_READ_SEC_XZ: opening file: pickup_orlanskiS.ckptA.003.005.data
(PID.TID 0000.0001)  MDS_READ_SEC_XZ: opening file: pickup_orlanskiS.ckptA.004.005.data
(PID.TID 0000.0001)  MDS_READ_SEC_XZ: opening file: pickup_orlanskiS.ckptA.005.005.data
(PID.TID 0000.0001)  MDS_READ_SEC_XZ: opening file: pickup_orlanskiS.ckptA.006.005.data
(PID.TID 0000.0001)  MDS_READ_SEC_XZ: opening file: pickup_orlanskiS.ckptA.007.005.data
(PID.TID 0000.0001)  MDS_READ_SEC_XZ: opening file: pickup_orlanskiS.ckptA.008.005.data
(PID.TID 0000.0001)  MDS_READ_SEC_XZ: opening file: pickup_orlanskiS.ckptA.009.005.data
(PID.TID 0000.0001)  MDS_READ_SEC_XZ: opening file: pickup_orlanskiS.ckptA.010.005.data
(PID.TID 0000.0001)  MDS_READ_SEC_XZ: opening file: pickup_orlanskiS.ckptA.011.005.data
(PID.TID 0000.0001)  MDS_READ_SEC_XZ: opening file: pickup_orlanskiS.ckptA.012.005.data
(PID.TID 0000.0001)  MDS_READ_SEC_XZ: opening file: pickup_orlanskiS.ckptA.013.005.data
(PID.TID 0000.0001)  MDS_READ_SEC_XZ: opening file: pickup_orlanskiS.ckptA.014.005.data
(PID.TID 0000.0001)  MDS_READ_SEC_XZ: opening file: pickup_orlanskiS.ckptA.015.005.data
(PID.TID 0000.0001)  MDS_READ_SEC_XZ: opening file: pickup_orlanskiS.ckptA.001.006.data
(PID.TID 0000.0001)  MDS_READ_SEC_XZ: opening file: pickup_orlanskiS.ckptA.002.006.data
(PID.TID 0000.0001)  MDS_READ_SEC_XZ: opening file: pickup_orlanskiS.ckptA.003.006.data
(PID.TID 0000.0001)  MDS_READ_SEC_XZ: opening file: pickup_orlanskiS.ckptA.004.006.data
(PID.TID 0000.0001)  MDS_READ_SEC_XZ: opening file: pickup_orlanskiS.ckptA.005.006.data
(PID.TID 0000.0001)  MDS_READ_SEC_XZ: opening file: pickup_orlanskiS.ckptA.006.006.data
(PID.TID 0000.0001)  MDS_READ_SEC_XZ: opening file: pickup_orlanskiS.ckptA.007.006.data
(PID.TID 0000.0001)  MDS_READ_SEC_XZ: opening file: pickup_orlanskiS.ckptA.008.006.data
(PID.TID 0000.0001)  MDS_READ_SEC_XZ: opening file: pickup_orlanskiS.ckptA.009.006.data
(PID.TID 0000.0001)  MDS_READ_SEC_XZ: opening file: pickup_orlanskiS.ckptA.010.006.data
(PID.TID 0000.0001)  MDS_READ_SEC_XZ: opening file: pickup_orlanskiS.ckptA.011.006.data
(PID.TID 0000.0001)  MDS_READ_SEC_XZ: opening file: pickup_orlanskiS.ckptA.012.006.data
(PID.TID 0000.0001)  MDS_READ_SEC_XZ: opening file: pickup_orlanskiS.ckptA.013.006.data
(PID.TID 0000.0001)  MDS_READ_SEC_XZ: opening file: pickup_orlanskiS.ckptA.014.006.data
(PID.TID 0000.0001)  MDS_READ_SEC_XZ: opening file: pickup_orlanskiS.ckptA.015.006.data
(PID.TID 0000.0001)  MDS_READ_SEC_XZ: opening file: pickup_orlanskiS.ckptA.001.007.data
(PID.TID 0000.0001)  MDS_READ_SEC_XZ: opening file: pickup_orlanskiS.ckptA.002.007.data
(PID.TID 0000.0001)  MDS_READ_SEC_XZ: opening file: pickup_orlanskiS.ckptA.003.007.data
(PID.TID 0000.0001)  MDS_READ_SEC_XZ: opening file: pickup_orlanskiS.ckptA.004.007.data
(PID.TID 0000.0001)  MDS_READ_SEC_XZ: opening file: pickup_orlanskiS.ckptA.005.007.data
(PID.TID 0000.0001)  MDS_READ_SEC_XZ: opening file: pickup_orlanskiS.ckptA.006.007.data
(PID.TID 0000.0001)  MDS_READ_SEC_XZ: opening file: pickup_orlanskiS.ckptA.007.007.data
(PID.TID 0000.0001)  MDS_READ_SEC_XZ: opening file: pickup_orlanskiS.ckptA.008.007.data
(PID.TID 0000.0001)  MDS_READ_SEC_XZ: opening file: pickup_orlanskiS.ckptA.009.007.data
(PID.TID 0000.0001)  MDS_READ_SEC_XZ: opening file: pickup_orlanskiS.ckptA.010.007.data
(PID.TID 0000.0001)  MDS_READ_SEC_XZ: opening file: pickup_orlanskiS.ckptA.011.007.data
(PID.TID 0000.0001)  MDS_READ_SEC_XZ: opening file: pickup_orlanskiS.ckptA.012.007.data
(PID.TID 0000.0001)  MDS_READ_SEC_XZ: opening file: pickup_orlanskiS.ckptA.013.007.data
(PID.TID 0000.0001)  MDS_READ_SEC_XZ: opening file: pickup_orlanskiS.ckptA.014.007.data
(PID.TID 0000.0001)  MDS_READ_SEC_XZ: opening file: pickup_orlanskiS.ckptA.015.007.data
(PID.TID 0000.0001)  MDS_READ_SEC_XZ: opening file: pickup_orlanskiS.ckptA.001.008.data
(PID.TID 0000.0001)  MDS_READ_SEC_XZ: opening file: pickup_orlanskiS.ckptA.002.008.data
(PID.TID 0000.0001)  MDS_READ_SEC_XZ: opening file: pickup_orlanskiS.ckptA.003.008.data
(PID.TID 0000.0001)  MDS_READ_SEC_XZ: opening file: pickup_orlanskiS.ckptA.004.008.data
(PID.TID 0000.0001)  MDS_READ_SEC_XZ: opening file: pickup_orlanskiS.ckptA.005.008.data
(PID.TID 0000.0001)  MDS_READ_SEC_XZ: opening file: pickup_orlanskiS.ckptA.006.008.data
(PID.TID 0000.0001)  MDS_READ_SEC_XZ: opening file: pickup_orlanskiS.ckptA.007.008.data
(PID.TID 0000.0001)  MDS_READ_SEC_XZ: opening file: pickup_orlanskiS.ckptA.008.008.data
(PID.TID 0000.0001)  MDS_READ_SEC_XZ: opening file: pickup_orlanskiS.ckptA.009.008.data
(PID.TID 0000.0001)  MDS_READ_SEC_XZ: opening file: pickup_orlanskiS.ckptA.010.008.data
(PID.TID 0000.0001)  MDS_READ_SEC_XZ: opening file: pickup_orlanskiS.ckptA.011.008.data
(PID.TID 0000.0001)  MDS_READ_SEC_XZ: opening file: pickup_orlanskiS.ckptA.012.008.data
(PID.TID 0000.0001)  MDS_READ_SEC_XZ: opening file: pickup_orlanskiS.ckptA.013.008.data
(PID.TID 0000.0001)  MDS_READ_SEC_XZ: opening file: pickup_orlanskiS.ckptA.014.008.data
(PID.TID 0000.0001)  MDS_READ_SEC_XZ: opening file: pickup_orlanskiS.ckptA.015.008.data
(PID.TID 0000.0001)  MDS_READ_SEC_XZ: opening file: pickup_orlanskiS.ckptA.001.009.data
(PID.TID 0000.0001)  MDS_READ_SEC_XZ: opening file: pickup_orlanskiS.ckptA.002.009.data
(PID.TID 0000.0001)  MDS_READ_SEC_XZ: opening file: pickup_orlanskiS.ckptA.003.009.data
(PID.TID 0000.0001)  MDS_READ_SEC_XZ: opening file: pickup_orlanskiS.ckptA.004.009.data
(PID.TID 0000.0001)  MDS_READ_SEC_XZ: opening file: pickup_orlanskiS.ckptA.005.009.data
(PID.TID 0000.0001)  MDS_READ_SEC_XZ: opening file: pickup_orlanskiS.ckptA.006.009.data
(PID.TID 0000.0001)  MDS_READ_SEC_XZ: opening file: pickup_orlanskiS.ckptA.007.009.data
(PID.TID 0000.0001)  MDS_READ_SEC_XZ: opening file: pickup_orlanskiS.ckptA.008.009.data
(PID.TID 0000.0001)  MDS_READ_SEC_XZ: opening file: pickup_orlanskiS.ckptA.009.009.data
(PID.TID 0000.0001)  MDS_READ_SEC_XZ: opening file: pickup_orlanskiS.ckptA.010.009.data
(PID.TID 0000.0001)  MDS_READ_SEC_XZ: opening file: pickup_orlanskiS.ckptA.011.009.data
(PID.TID 0000.0001)  MDS_READ_SEC_XZ: opening file: pickup_orlanskiS.ckptA.012.009.data
(PID.TID 0000.0001)  MDS_READ_SEC_XZ: opening file: pickup_orlanskiS.ckptA.013.009.data
(PID.TID 0000.0001)  MDS_READ_SEC_XZ: opening file: pickup_orlanskiS.ckptA.014.009.data
(PID.TID 0000.0001)  MDS_READ_SEC_XZ: opening file: pickup_orlanskiS.ckptA.015.009.data
(PID.TID 0000.0001)  MDS_READ_SEC_XZ: opening file: pickup_orlanskiS.ckptA.001.010.data
(PID.TID 0000.0001)  MDS_READ_SEC_XZ: opening file: pickup_orlanskiS.ckptA.002.010.data
(PID.TID 0000.0001)  MDS_READ_SEC_XZ: opening file: pickup_orlanskiS.ckptA.003.010.data
(PID.TID 0000.0001)  MDS_READ_SEC_XZ: opening file: pickup_orlanskiS.ckptA.004.010.data
(PID.TID 0000.0001)  MDS_READ_SEC_XZ: opening file: pickup_orlanskiS.ckptA.005.010.data
(PID.TID 0000.0001)  MDS_READ_SEC_XZ: opening file: pickup_orlanskiS.ckptA.006.010.data
(PID.TID 0000.0001)  MDS_READ_SEC_XZ: opening file: pickup_orlanskiS.ckptA.007.010.data
(PID.TID 0000.0001)  MDS_READ_SEC_XZ: opening file: pickup_orlanskiS.ckptA.008.010.data
(PID.TID 0000.0001)  MDS_READ_SEC_XZ: opening file: pickup_orlanskiS.ckptA.009.010.data
(PID.TID 0000.0001)  MDS_READ_SEC_XZ: opening file: pickup_orlanskiS.ckptA.010.010.data
(PID.TID 0000.0001)  MDS_READ_SEC_XZ: opening file: pickup_orlanskiS.ckptA.011.010.data
(PID.TID 0000.0001)  MDS_READ_SEC_XZ: opening file: pickup_orlanskiS.ckptA.012.010.data
(PID.TID 0000.0001)  MDS_READ_SEC_XZ: opening file: pickup_orlanskiS.ckptA.013.010.data
(PID.TID 0000.0001)  MDS_READ_SEC_XZ: opening file: pickup_orlanskiS.ckptA.014.010.data
(PID.TID 0000.0001)  MDS_READ_SEC_XZ: opening file: pickup_orlanskiS.ckptA.015.010.data
(PID.TID 0000.0001)  MDS_READ_SEC_XZ: opening file: pickup_orlanskiS.ckptA.001.011.data
(PID.TID 0000.0001)  MDS_READ_SEC_XZ: opening file: pickup_orlanskiS.ckptA.002.011.data
(PID.TID 0000.0001)  MDS_READ_SEC_XZ: opening file: pickup_orlanskiS.ckptA.003.011.data
(PID.TID 0000.0001)  MDS_READ_SEC_XZ: opening file: pickup_orlanskiS.ckptA.004.011.data
(PID.TID 0000.0001)  MDS_READ_SEC_XZ: opening file: pickup_orlanskiS.ckptA.005.011.data
(PID.TID 0000.0001)  MDS_READ_SEC_XZ: opening file: pickup_orlanskiS.ckptA.006.011.data
(PID.TID 0000.0001)  MDS_READ_SEC_XZ: opening file: pickup_orlanskiS.ckptA.007.011.data
(PID.TID 0000.0001)  MDS_READ_SEC_XZ: opening file: pickup_orlanskiS.ckptA.008.011.data
(PID.TID 0000.0001)  MDS_READ_SEC_XZ: opening file: pickup_orlanskiS.ckptA.009.011.data
(PID.TID 0000.0001)  MDS_READ_SEC_XZ: opening file: pickup_orlanskiS.ckptA.010.011.data
(PID.TID 0000.0001)  MDS_READ_SEC_XZ: opening file: pickup_orlanskiS.ckptA.011.011.data
(PID.TID 0000.0001)  MDS_READ_SEC_XZ: opening file: pickup_orlanskiS.ckptA.012.011.data
(PID.TID 0000.0001)  MDS_READ_SEC_XZ: opening file: pickup_orlanskiS.ckptA.013.011.data
(PID.TID 0000.0001)  MDS_READ_SEC_XZ: opening file: pickup_orlanskiS.ckptA.014.011.data
(PID.TID 0000.0001)  MDS_READ_SEC_XZ: opening file: pickup_orlanskiS.ckptA.015.011.data
(PID.TID 0000.0001)  MDS_READ_SEC_XZ: opening file: pickup_orlanskiS.ckptA.001.012.data
(PID.TID 0000.0001)  MDS_READ_SEC_XZ: opening file: pickup_orlanskiS.ckptA.002.012.data
(PID.TID 0000.0001)  MDS_READ_SEC_XZ: opening file: pickup_orlanskiS.ckptA.003.012.data
(PID.TID 0000.0001)  MDS_READ_SEC_XZ: opening file: pickup_orlanskiS.ckptA.004.012.data
(PID.TID 0000.0001)  MDS_READ_SEC_XZ: opening file: pickup_orlanskiS.ckptA.005.012.data
(PID.TID 0000.0001)  MDS_READ_SEC_XZ: opening file: pickup_orlanskiS.ckptA.006.012.data
(PID.TID 0000.0001)  MDS_READ_SEC_XZ: opening file: pickup_orlanskiS.ckptA.007.012.data
(PID.TID 0000.0001)  MDS_READ_SEC_XZ: opening file: pickup_orlanskiS.ckptA.008.012.data
(PID.TID 0000.0001)  MDS_READ_SEC_XZ: opening file: pickup_orlanskiS.ckptA.009.012.data
(PID.TID 0000.0001)  MDS_READ_SEC_XZ: opening file: pickup_orlanskiS.ckptA.010.012.data
(PID.TID 0000.0001)  MDS_READ_SEC_XZ: opening file: pickup_orlanskiS.ckptA.011.012.data
(PID.TID 0000.0001)  MDS_READ_SEC_XZ: opening file: pickup_orlanskiS.ckptA.012.012.data
(PID.TID 0000.0001)  MDS_READ_SEC_XZ: opening file: pickup_orlanskiS.ckptA.013.012.data
(PID.TID 0000.0001)  MDS_READ_SEC_XZ: opening file: pickup_orlanskiS.ckptA.014.012.data
(PID.TID 0000.0001)  MDS_READ_SEC_XZ: opening file: pickup_orlanskiS.ckptA.015.012.data
(PID.TID 0000.0001)  MDS_READ_SEC_XZ: opening file: pickup_orlanskiS.ckptA.001.013.data
(PID.TID 0000.0001)  MDS_READ_SEC_XZ: opening file: pickup_orlanskiS.ckptA.002.013.data
(PID.TID 0000.0001)  MDS_READ_SEC_XZ: opening file: pickup_orlanskiS.ckptA.003.013.data
(PID.TID 0000.0001)  MDS_READ_SEC_XZ: opening file: pickup_orlanskiS.ckptA.004.013.data
(PID.TID 0000.0001)  MDS_READ_SEC_XZ: opening file: pickup_orlanskiS.ckptA.005.013.data
(PID.TID 0000.0001)  MDS_READ_SEC_XZ: opening file: pickup_orlanskiS.ckptA.006.013.data
(PID.TID 0000.0001)  MDS_READ_SEC_XZ: opening file: pickup_orlanskiS.ckptA.007.013.data
(PID.TID 0000.0001)  MDS_READ_SEC_XZ: opening file: pickup_orlanskiS.ckptA.008.013.data
(PID.TID 0000.0001)  MDS_READ_SEC_XZ: opening file: pickup_orlanskiS.ckptA.009.013.data
(PID.TID 0000.0001)  MDS_READ_SEC_XZ: opening file: pickup_orlanskiS.ckptA.010.013.data
(PID.TID 0000.0001)  MDS_READ_SEC_XZ: opening file: pickup_orlanskiS.ckptA.011.013.data
(PID.TID 0000.0001)  MDS_READ_SEC_XZ: opening file: pickup_orlanskiS.ckptA.012.013.data
(PID.TID 0000.0001)  MDS_READ_SEC_XZ: opening file: pickup_orlanskiS.ckptA.013.013.data
(PID.TID 0000.0001)  MDS_READ_SEC_XZ: opening file: pickup_orlanskiS.ckptA.014.013.data
(PID.TID 0000.0001)  MDS_READ_SEC_XZ: opening file: pickup_orlanskiS.ckptA.015.013.data
(PID.TID 0000.0001)  MDS_READ_SEC_XZ: opening file: pickup_orlanskiS.ckptA.001.014.data
(PID.TID 0000.0001)  MDS_READ_SEC_XZ: opening file: pickup_orlanskiS.ckptA.002.014.data
(PID.TID 0000.0001)  MDS_READ_SEC_XZ: opening file: pickup_orlanskiS.ckptA.003.014.data
(PID.TID 0000.0001)  MDS_READ_SEC_XZ: opening file: pickup_orlanskiS.ckptA.004.014.data
(PID.TID 0000.0001)  MDS_READ_SEC_XZ: opening file: pickup_orlanskiS.ckptA.005.014.data
(PID.TID 0000.0001)  MDS_READ_SEC_XZ: opening file: pickup_orlanskiS.ckptA.006.014.data
(PID.TID 0000.0001)  MDS_READ_SEC_XZ: opening file: pickup_orlanskiS.ckptA.007.014.data
(PID.TID 0000.0001)  MDS_READ_SEC_XZ: opening file: pickup_orlanskiS.ckptA.008.014.data
(PID.TID 0000.0001)  MDS_READ_SEC_XZ: opening file: pickup_orlanskiS.ckptA.009.014.data
(PID.TID 0000.0001)  MDS_READ_SEC_XZ: opening file: pickup_orlanskiS.ckptA.010.014.data
(PID.TID 0000.0001)  MDS_READ_SEC_XZ: opening file: pickup_orlanskiS.ckptA.011.014.data
(PID.TID 0000.0001)  MDS_READ_SEC_XZ: opening file: pickup_orlanskiS.ckptA.012.014.data
(PID.TID 0000.0001)  MDS_READ_SEC_XZ: opening file: pickup_orlanskiS.ckptA.013.014.data
(PID.TID 0000.0001)  MDS_READ_SEC_XZ: opening file: pickup_orlanskiS.ckptA.014.014.data
(PID.TID 0000.0001)  MDS_READ_SEC_XZ: opening file: pickup_orlanskiS.ckptA.015.014.data
(PID.TID 0000.0001)  MDS_READ_SEC_XZ: opening file: pickup_orlanskiS.ckptA.001.015.data
(PID.TID 0000.0001)  MDS_READ_SEC_XZ: opening file: pickup_orlanskiS.ckptA.002.015.data
(PID.TID 0000.0001)  MDS_READ_SEC_XZ: opening file: pickup_orlanskiS.ckptA.003.015.data
(PID.TID 0000.0001)  MDS_READ_SEC_XZ: opening file: pickup_orlanskiS.ckptA.004.015.data
(PID.TID 0000.0001)  MDS_READ_SEC_XZ: opening file: pickup_orlanskiS.ckptA.005.015.data
(PID.TID 0000.0001)  MDS_READ_SEC_XZ: opening file: pickup_orlanskiS.ckptA.006.015.data
(PID.TID 0000.0001)  MDS_READ_SEC_XZ: opening file: pickup_orlanskiS.ckptA.007.015.data
(PID.TID 0000.0001)  MDS_READ_SEC_XZ: opening file: pickup_orlanskiS.ckptA.008.015.data
(PID.TID 0000.0001)  MDS_READ_SEC_XZ: opening file: pickup_orlanskiS.ckptA.009.015.data
(PID.TID 0000.0001)  MDS_READ_SEC_XZ: opening file: pickup_orlanskiS.ckptA.010.015.data
(PID.TID 0000.0001)  MDS_READ_SEC_XZ: opening file: pickup_orlanskiS.ckptA.011.015.data
(PID.TID 0000.0001)  MDS_READ_SEC_XZ: opening file: pickup_orlanskiS.ckptA.012.015.data
(PID.TID 0000.0001)  MDS_READ_SEC_XZ: opening file: pickup_orlanskiS.ckptA.013.015.data
(PID.TID 0000.0001)  MDS_READ_SEC_XZ: opening file: pickup_orlanskiS.ckptA.014.015.data
(PID.TID 0000.0001)  MDS_READ_SEC_XZ: opening file: pickup_orlanskiS.ckptA.015.015.data
(PID.TID 0000.0001)  MDS_READ_SEC_XZ: opening file: pickup_orlanskiS.ckptA.001.001.data
(PID.TID 0000.0001)  MDS_READ_SEC_XZ: opening file: pickup_orlanskiS.ckptA.002.001.data
(PID.TID 0000.0001)  MDS_READ_SEC_XZ: opening file: pickup_orlanskiS.ckptA.003.001.data
(PID.TID 0000.0001)  MDS_READ_SEC_XZ: opening file: pickup_orlanskiS.ckptA.004.001.data
(PID.TID 0000.0001)  MDS_READ_SEC_XZ: opening file: pickup_orlanskiS.ckptA.005.001.data
(PID.TID 0000.0001)  MDS_READ_SEC_XZ: opening file: pickup_orlanskiS.ckptA.006.001.data
(PID.TID 0000.0001)  MDS_READ_SEC_XZ: opening file: pickup_orlanskiS.ckptA.007.001.data
(PID.TID 0000.0001)  MDS_READ_SEC_XZ: opening file: pickup_orlanskiS.ckptA.008.001.data
(PID.TID 0000.0001)  MDS_READ_SEC_XZ: opening file: pickup_orlanskiS.ckptA.009.001.data
(PID.TID 0000.0001)  MDS_READ_SEC_XZ: opening file: pickup_orlanskiS.ckptA.010.001.data
(PID.TID 0000.0001)  MDS_READ_SEC_XZ: opening file: pickup_orlanskiS.ckptA.011.001.data
(PID.TID 0000.0001)  MDS_READ_SEC_XZ: opening file: pickup_orlanskiS.ckptA.012.001.data
(PID.TID 0000.0001)  MDS_READ_SEC_XZ: opening file: pickup_orlanskiS.ckptA.013.001.data
(PID.TID 0000.0001)  MDS_READ_SEC_XZ: opening file: pickup_orlanskiS.ckptA.014.001.data
(PID.TID 0000.0001)  MDS_READ_SEC_XZ: opening file: pickup_orlanskiS.ckptA.015.001.data
(PID.TID 0000.0001)  MDS_READ_SEC_XZ: opening file: pickup_orlanskiS.ckptA.001.002.data
(PID.TID 0000.0001)  MDS_READ_SEC_XZ: opening file: pickup_orlanskiS.ckptA.002.002.data
(PID.TID 0000.0001)  MDS_READ_SEC_XZ: opening file: pickup_orlanskiS.ckptA.003.002.data
(PID.TID 0000.0001)  MDS_READ_SEC_XZ: opening file: pickup_orlanskiS.ckptA.004.002.data
(PID.TID 0000.0001)  MDS_READ_SEC_XZ: opening file: pickup_orlanskiS.ckptA.005.002.data
(PID.TID 0000.0001)  MDS_READ_SEC_XZ: opening file: pickup_orlanskiS.ckptA.006.002.data
(PID.TID 0000.0001)  MDS_READ_SEC_XZ: opening file: pickup_orlanskiS.ckptA.007.002.data
(PID.TID 0000.0001)  MDS_READ_SEC_XZ: opening file: pickup_orlanskiS.ckptA.008.002.data
(PID.TID 0000.0001)  MDS_READ_SEC_XZ: opening file: pickup_orlanskiS.ckptA.009.002.data
(PID.TID 0000.0001)  MDS_READ_SEC_XZ: opening file: pickup_orlanskiS.ckptA.010.002.data
(PID.TID 0000.0001)  MDS_READ_SEC_XZ: opening file: pickup_orlanskiS.ckptA.011.002.data
(PID.TID 0000.0001)  MDS_READ_SEC_XZ: opening file: pickup_orlanskiS.ckptA.012.002.data
(PID.TID 0000.0001)  MDS_READ_SEC_XZ: opening file: pickup_orlanskiS.ckptA.013.002.data
(PID.TID 0000.0001)  MDS_READ_SEC_XZ: opening file: pickup_orlanskiS.ckptA.014.002.data
(PID.TID 0000.0001)  MDS_READ_SEC_XZ: opening file: pickup_orlanskiS.ckptA.015.002.data
(PID.TID 0000.0001)  MDS_READ_SEC_XZ: opening file: pickup_orlanskiS.ckptA.001.003.data
(PID.TID 0000.0001)  MDS_READ_SEC_XZ: opening file: pickup_orlanskiS.ckptA.002.003.data
(PID.TID 0000.0001)  MDS_READ_SEC_XZ: opening file: pickup_orlanskiS.ckptA.003.003.data
(PID.TID 0000.0001)  MDS_READ_SEC_XZ: opening file: pickup_orlanskiS.ckptA.004.003.data
(PID.TID 0000.0001)  MDS_READ_SEC_XZ: opening file: pickup_orlanskiS.ckptA.005.003.data
(PID.TID 0000.0001)  MDS_READ_SEC_XZ: opening file: pickup_orlanskiS.ckptA.006.003.data
(PID.TID 0000.0001)  MDS_READ_SEC_XZ: opening file: pickup_orlanskiS.ckptA.007.003.data
(PID.TID 0000.0001)  MDS_READ_SEC_XZ: opening file: pickup_orlanskiS.ckptA.008.003.data
(PID.TID 0000.0001)  MDS_READ_SEC_XZ: opening file: pickup_orlanskiS.ckptA.009.003.data
(PID.TID 0000.0001)  MDS_READ_SEC_XZ: opening file: pickup_orlanskiS.ckptA.010.003.data
(PID.TID 0000.0001)  MDS_READ_SEC_XZ: opening file: pickup_orlanskiS.ckptA.011.003.data
(PID.TID 0000.0001)  MDS_READ_SEC_XZ: opening file: pickup_orlanskiS.ckptA.012.003.data
(PID.TID 0000.0001)  MDS_READ_SEC_XZ: opening file: pickup_orlanskiS.ckptA.013.003.data
(PID.TID 0000.0001)  MDS_READ_SEC_XZ: opening file: pickup_orlanskiS.ckptA.014.003.data
(PID.TID 0000.0001)  MDS_READ_SEC_XZ: opening file: pickup_orlanskiS.ckptA.015.003.data
(PID.TID 0000.0001)  MDS_READ_SEC_XZ: opening file: pickup_orlanskiS.ckptA.001.004.data
(PID.TID 0000.0001)  MDS_READ_SEC_XZ: opening file: pickup_orlanskiS.ckptA.002.004.data
(PID.TID 0000.0001)  MDS_READ_SEC_XZ: opening file: pickup_orlanskiS.ckptA.003.004.data
(PID.TID 0000.0001)  MDS_READ_SEC_XZ: opening file: pickup_orlanskiS.ckptA.004.004.data
(PID.TID 0000.0001)  MDS_READ_SEC_XZ: opening file: pickup_orlanskiS.ckptA.005.004.data
(PID.TID 0000.0001)  MDS_READ_SEC_XZ: opening file: pickup_orlanskiS.ckptA.006.004.data
(PID.TID 0000.0001)  MDS_READ_SEC_XZ: opening file: pickup_orlanskiS.ckptA.007.004.data
(PID.TID 0000.0001)  MDS_READ_SEC_XZ: opening file: pickup_orlanskiS.ckptA.008.004.data
(PID.TID 0000.0001)  MDS_READ_SEC_XZ: opening file: pickup_orlanskiS.ckptA.009.004.data
(PID.TID 0000.0001)  MDS_READ_SEC_XZ: opening file: pickup_orlanskiS.ckptA.010.004.data
(PID.TID 0000.0001)  MDS_READ_SEC_XZ: opening file: pickup_orlanskiS.ckptA.011.004.data
(PID.TID 0000.0001)  MDS_READ_SEC_XZ: opening file: pickup_orlanskiS.ckptA.012.004.data
(PID.TID 0000.0001)  MDS_READ_SEC_XZ: opening file: pickup_orlanskiS.ckptA.013.004.data
(PID.TID 0000.0001)  MDS_READ_SEC_XZ: opening file: pickup_orlanskiS.ckptA.014.004.data
(PID.TID 0000.0001)  MDS_READ_SEC_XZ: opening file: pickup_orlanskiS.ckptA.015.004.data
(PID.TID 0000.0001)  MDS_READ_SEC_XZ: opening file: pickup_orlanskiS.ckptA.001.005.data
(PID.TID 0000.0001)  MDS_READ_SEC_XZ: opening file: pickup_orlanskiS.ckptA.002.005.data
(PID.TID 0000.0001)  MDS_READ_SEC_XZ: opening file: pickup_orlanskiS.ckptA.003.005.data
(PID.TID 0000.0001)  MDS_READ_SEC_XZ: opening file: pickup_orlanskiS.ckptA.004.005.data
(PID.TID 0000.0001)  MDS_READ_SEC_XZ: opening file: pickup_orlanskiS.ckptA.005.005.data
(PID.TID 0000.0001)  MDS_READ_SEC_XZ: opening file: pickup_orlanskiS.ckptA.006.005.data
(PID.TID 0000.0001)  MDS_READ_SEC_XZ: opening file: pickup_orlanskiS.ckptA.007.005.data
(PID.TID 0000.0001)  MDS_READ_SEC_XZ: opening file: pickup_orlanskiS.ckptA.008.005.data
(PID.TID 0000.0001)  MDS_READ_SEC_XZ: opening file: pickup_orlanskiS.ckptA.009.005.data
(PID.TID 0000.0001)  MDS_READ_SEC_XZ: opening file: pickup_orlanskiS.ckptA.010.005.data
(PID.TID 0000.0001)  MDS_READ_SEC_XZ: opening file: pickup_orlanskiS.ckptA.011.005.data
(PID.TID 0000.0001)  MDS_READ_SEC_XZ: opening file: pickup_orlanskiS.ckptA.012.005.data
(PID.TID 0000.0001)  MDS_READ_SEC_XZ: opening file: pickup_orlanskiS.ckptA.013.005.data
(PID.TID 0000.0001)  MDS_READ_SEC_XZ: opening file: pickup_orlanskiS.ckptA.014.005.data
(PID.TID 0000.0001)  MDS_READ_SEC_XZ: opening file: pickup_orlanskiS.ckptA.015.005.data
(PID.TID 0000.0001)  MDS_READ_SEC_XZ: opening file: pickup_orlanskiS.ckptA.001.006.data
(PID.TID 0000.0001)  MDS_READ_SEC_XZ: opening file: pickup_orlanskiS.ckptA.002.006.data
(PID.TID 0000.0001)  MDS_READ_SEC_XZ: opening file: pickup_orlanskiS.ckptA.003.006.data
(PID.TID 0000.0001)  MDS_READ_SEC_XZ: opening file: pickup_orlanskiS.ckptA.004.006.data
(PID.TID 0000.0001)  MDS_READ_SEC_XZ: opening file: pickup_orlanskiS.ckptA.005.006.data
(PID.TID 0000.0001)  MDS_READ_SEC_XZ: opening file: pickup_orlanskiS.ckptA.006.006.data
(PID.TID 0000.0001)  MDS_READ_SEC_XZ: opening file: pickup_orlanskiS.ckptA.007.006.data
(PID.TID 0000.0001)  MDS_READ_SEC_XZ: opening file: pickup_orlanskiS.ckptA.008.006.data
(PID.TID 0000.0001)  MDS_READ_SEC_XZ: opening file: pickup_orlanskiS.ckptA.009.006.data
(PID.TID 0000.0001)  MDS_READ_SEC_XZ: opening file: pickup_orlanskiS.ckptA.010.006.data
(PID.TID 0000.0001)  MDS_READ_SEC_XZ: opening file: pickup_orlanskiS.ckptA.011.006.data
(PID.TID 0000.0001)  MDS_READ_SEC_XZ: opening file: pickup_orlanskiS.ckptA.012.006.data
(PID.TID 0000.0001)  MDS_READ_SEC_XZ: opening file: pickup_orlanskiS.ckptA.013.006.data
(PID.TID 0000.0001)  MDS_READ_SEC_XZ: opening file: pickup_orlanskiS.ckptA.014.006.data
(PID.TID 0000.0001)  MDS_READ_SEC_XZ: opening file: pickup_orlanskiS.ckptA.015.006.data
(PID.TID 0000.0001)  MDS_READ_SEC_XZ: opening file: pickup_orlanskiS.ckptA.001.007.data
(PID.TID 0000.0001)  MDS_READ_SEC_XZ: opening file: pickup_orlanskiS.ckptA.002.007.data
(PID.TID 0000.0001)  MDS_READ_SEC_XZ: opening file: pickup_orlanskiS.ckptA.003.007.data
(PID.TID 0000.0001)  MDS_READ_SEC_XZ: opening file: pickup_orlanskiS.ckptA.004.007.data
(PID.TID 0000.0001)  MDS_READ_SEC_XZ: opening file: pickup_orlanskiS.ckptA.005.007.data
(PID.TID 0000.0001)  MDS_READ_SEC_XZ: opening file: pickup_orlanskiS.ckptA.006.007.data
(PID.TID 0000.0001)  MDS_READ_SEC_XZ: opening file: pickup_orlanskiS.ckptA.007.007.data
(PID.TID 0000.0001)  MDS_READ_SEC_XZ: opening file: pickup_orlanskiS.ckptA.008.007.data
(PID.TID 0000.0001)  MDS_READ_SEC_XZ: opening file: pickup_orlanskiS.ckptA.009.007.data
(PID.TID 0000.0001)  MDS_READ_SEC_XZ: opening file: pickup_orlanskiS.ckptA.010.007.data
(PID.TID 0000.0001)  MDS_READ_SEC_XZ: opening file: pickup_orlanskiS.ckptA.011.007.data
(PID.TID 0000.0001)  MDS_READ_SEC_XZ: opening file: pickup_orlanskiS.ckptA.012.007.data
(PID.TID 0000.0001)  MDS_READ_SEC_XZ: opening file: pickup_orlanskiS.ckptA.013.007.data
(PID.TID 0000.0001)  MDS_READ_SEC_XZ: opening file: pickup_orlanskiS.ckptA.014.007.data
(PID.TID 0000.0001)  MDS_READ_SEC_XZ: opening file: pickup_orlanskiS.ckptA.015.007.data
(PID.TID 0000.0001)  MDS_READ_SEC_XZ: opening file: pickup_orlanskiS.ckptA.001.008.data
(PID.TID 0000.0001)  MDS_READ_SEC_XZ: opening file: pickup_orlanskiS.ckptA.002.008.data
(PID.TID 0000.0001)  MDS_READ_SEC_XZ: opening file: pickup_orlanskiS.ckptA.003.008.data
(PID.TID 0000.0001)  MDS_READ_SEC_XZ: opening file: pickup_orlanskiS.ckptA.004.008.data
(PID.TID 0000.0001)  MDS_READ_SEC_XZ: opening file: pickup_orlanskiS.ckptA.005.008.data
(PID.TID 0000.0001)  MDS_READ_SEC_XZ: opening file: pickup_orlanskiS.ckptA.006.008.data
(PID.TID 0000.0001)  MDS_READ_SEC_XZ: opening file: pickup_orlanskiS.ckptA.007.008.data
(PID.TID 0000.0001)  MDS_READ_SEC_XZ: opening file: pickup_orlanskiS.ckptA.008.008.data
(PID.TID 0000.0001)  MDS_READ_SEC_XZ: opening file: pickup_orlanskiS.ckptA.009.008.data
(PID.TID 0000.0001)  MDS_READ_SEC_XZ: opening file: pickup_orlanskiS.ckptA.010.008.data
(PID.TID 0000.0001)  MDS_READ_SEC_XZ: opening file: pickup_orlanskiS.ckptA.011.008.data
(PID.TID 0000.0001)  MDS_READ_SEC_XZ: opening file: pickup_orlanskiS.ckptA.012.008.data
(PID.TID 0000.0001)  MDS_READ_SEC_XZ: opening file: pickup_orlanskiS.ckptA.013.008.data
(PID.TID 0000.0001)  MDS_READ_SEC_XZ: opening file: pickup_orlanskiS.ckptA.014.008.data
(PID.TID 0000.0001)  MDS_READ_SEC_XZ: opening file: pickup_orlanskiS.ckptA.015.008.data
(PID.TID 0000.0001)  MDS_READ_SEC_XZ: opening file: pickup_orlanskiS.ckptA.001.009.data
(PID.TID 0000.0001)  MDS_READ_SEC_XZ: opening file: pickup_orlanskiS.ckptA.002.009.data
(PID.TID 0000.0001)  MDS_READ_SEC_XZ: opening file: pickup_orlanskiS.ckptA.003.009.data
(PID.TID 0000.0001)  MDS_READ_SEC_XZ: opening file: pickup_orlanskiS.ckptA.004.009.data
(PID.TID 0000.0001)  MDS_READ_SEC_XZ: opening file: pickup_orlanskiS.ckptA.005.009.data
(PID.TID 0000.0001)  MDS_READ_SEC_XZ: opening file: pickup_orlanskiS.ckptA.006.009.data
(PID.TID 0000.0001)  MDS_READ_SEC_XZ: opening file: pickup_orlanskiS.ckptA.007.009.data
(PID.TID 0000.0001)  MDS_READ_SEC_XZ: opening file: pickup_orlanskiS.ckptA.008.009.data
(PID.TID 0000.0001)  MDS_READ_SEC_XZ: opening file: pickup_orlanskiS.ckptA.009.009.data
(PID.TID 0000.0001)  MDS_READ_SEC_XZ: opening file: pickup_orlanskiS.ckptA.010.009.data
(PID.TID 0000.0001)  MDS_READ_SEC_XZ: opening file: pickup_orlanskiS.ckptA.011.009.data
(PID.TID 0000.0001)  MDS_READ_SEC_XZ: opening file: pickup_orlanskiS.ckptA.012.009.data
(PID.TID 0000.0001)  MDS_READ_SEC_XZ: opening file: pickup_orlanskiS.ckptA.013.009.data
(PID.TID 0000.0001)  MDS_READ_SEC_XZ: opening file: pickup_orlanskiS.ckptA.014.009.data
(PID.TID 0000.0001)  MDS_READ_SEC_XZ: opening file: pickup_orlanskiS.ckptA.015.009.data
(PID.TID 0000.0001)  MDS_READ_SEC_XZ: opening file: pickup_orlanskiS.ckptA.001.010.data
(PID.TID 0000.0001)  MDS_READ_SEC_XZ: opening file: pickup_orlanskiS.ckptA.002.010.data
(PID.TID 0000.0001)  MDS_READ_SEC_XZ: opening file: pickup_orlanskiS.ckptA.003.010.data
(PID.TID 0000.0001)  MDS_READ_SEC_XZ: opening file: pickup_orlanskiS.ckptA.004.010.data
(PID.TID 0000.0001)  MDS_READ_SEC_XZ: opening file: pickup_orlanskiS.ckptA.005.010.data
(PID.TID 0000.0001)  MDS_READ_SEC_XZ: opening file: pickup_orlanskiS.ckptA.006.010.data
(PID.TID 0000.0001)  MDS_READ_SEC_XZ: opening file: pickup_orlanskiS.ckptA.007.010.data
(PID.TID 0000.0001)  MDS_READ_SEC_XZ: opening file: pickup_orlanskiS.ckptA.008.010.data
(PID.TID 0000.0001)  MDS_READ_SEC_XZ: opening file: pickup_orlanskiS.ckptA.009.010.data
(PID.TID 0000.0001)  MDS_READ_SEC_XZ: opening file: pickup_orlanskiS.ckptA.010.010.data
(PID.TID 0000.0001)  MDS_READ_SEC_XZ: opening file: pickup_orlanskiS.ckptA.011.010.data
(PID.TID 0000.0001)  MDS_READ_SEC_XZ: opening file: pickup_orlanskiS.ckptA.012.010.data
(PID.TID 0000.0001)  MDS_READ_SEC_XZ: opening file: pickup_orlanskiS.ckptA.013.010.data
(PID.TID 0000.0001)  MDS_READ_SEC_XZ: opening file: pickup_orlanskiS.ckptA.014.010.data
(PID.TID 0000.0001)  MDS_READ_SEC_XZ: opening file: pickup_orlanskiS.ckptA.015.010.data
(PID.TID 0000.0001)  MDS_READ_SEC_XZ: opening file: pickup_orlanskiS.ckptA.001.011.data
(PID.TID 0000.0001)  MDS_READ_SEC_XZ: opening file: pickup_orlanskiS.ckptA.002.011.data
(PID.TID 0000.0001)  MDS_READ_SEC_XZ: opening file: pickup_orlanskiS.ckptA.003.011.data
(PID.TID 0000.0001)  MDS_READ_SEC_XZ: opening file: pickup_orlanskiS.ckptA.004.011.data
(PID.TID 0000.0001)  MDS_READ_SEC_XZ: opening file: pickup_orlanskiS.ckptA.005.011.data
(PID.TID 0000.0001)  MDS_READ_SEC_XZ: opening file: pickup_orlanskiS.ckptA.006.011.data
(PID.TID 0000.0001)  MDS_READ_SEC_XZ: opening file: pickup_orlanskiS.ckptA.007.011.data
(PID.TID 0000.0001)  MDS_READ_SEC_XZ: opening file: pickup_orlanskiS.ckptA.008.011.data
(PID.TID 0000.0001)  MDS_READ_SEC_XZ: opening file: pickup_orlanskiS.ckptA.009.011.data
(PID.TID 0000.0001)  MDS_READ_SEC_XZ: opening file: pickup_orlanskiS.ckptA.010.011.data
(PID.TID 0000.0001)  MDS_READ_SEC_XZ: opening file: pickup_orlanskiS.ckptA.011.011.data
(PID.TID 0000.0001)  MDS_READ_SEC_XZ: opening file: pickup_orlanskiS.ckptA.012.011.data
(PID.TID 0000.0001)  MDS_READ_SEC_XZ: opening file: pickup_orlanskiS.ckptA.013.011.data
(PID.TID 0000.0001)  MDS_READ_SEC_XZ: opening file: pickup_orlanskiS.ckptA.014.011.data
(PID.TID 0000.0001)  MDS_READ_SEC_XZ: opening file: pickup_orlanskiS.ckptA.015.011.data
(PID.TID 0000.0001)  MDS_READ_SEC_XZ: opening file: pickup_orlanskiS.ckptA.001.012.data
(PID.TID 0000.0001)  MDS_READ_SEC_XZ: opening file: pickup_orlanskiS.ckptA.002.012.data
(PID.TID 0000.0001)  MDS_READ_SEC_XZ: opening file: pickup_orlanskiS.ckptA.003.012.data
(PID.TID 0000.0001)  MDS_READ_SEC_XZ: opening file: pickup_orlanskiS.ckptA.004.012.data
(PID.TID 0000.0001)  MDS_READ_SEC_XZ: opening file: pickup_orlanskiS.ckptA.005.012.data
(PID.TID 0000.0001)  MDS_READ_SEC_XZ: opening file: pickup_orlanskiS.ckptA.006.012.data
(PID.TID 0000.0001)  MDS_READ_SEC_XZ: opening file: pickup_orlanskiS.ckptA.007.012.data
(PID.TID 0000.0001)  MDS_READ_SEC_XZ: opening file: pickup_orlanskiS.ckptA.008.012.data
(PID.TID 0000.0001)  MDS_READ_SEC_XZ: opening file: pickup_orlanskiS.ckptA.009.012.data
(PID.TID 0000.0001)  MDS_READ_SEC_XZ: opening file: pickup_orlanskiS.ckptA.010.012.data
(PID.TID 0000.0001)  MDS_READ_SEC_XZ: opening file: pickup_orlanskiS.ckptA.011.012.data
(PID.TID 0000.0001)  MDS_READ_SEC_XZ: opening file: pickup_orlanskiS.ckptA.012.012.data
(PID.TID 0000.0001)  MDS_READ_SEC_XZ: opening file: pickup_orlanskiS.ckptA.013.012.data
(PID.TID 0000.0001)  MDS_READ_SEC_XZ: opening file: pickup_orlanskiS.ckptA.014.012.data
(PID.TID 0000.0001)  MDS_READ_SEC_XZ: opening file: pickup_orlanskiS.ckptA.015.012.data
(PID.TID 0000.0001)  MDS_READ_SEC_XZ: opening file: pickup_orlanskiS.ckptA.001.013.data
(PID.TID 0000.0001)  MDS_READ_SEC_XZ: opening file: pickup_orlanskiS.ckptA.002.013.data
(PID.TID 0000.0001)  MDS_READ_SEC_XZ: opening file: pickup_orlanskiS.ckptA.003.013.data
(PID.TID 0000.0001)  MDS_READ_SEC_XZ: opening file: pickup_orlanskiS.ckptA.004.013.data
(PID.TID 0000.0001)  MDS_READ_SEC_XZ: opening file: pickup_orlanskiS.ckptA.005.013.data
(PID.TID 0000.0001)  MDS_READ_SEC_XZ: opening file: pickup_orlanskiS.ckptA.006.013.data
(PID.TID 0000.0001)  MDS_READ_SEC_XZ: opening file: pickup_orlanskiS.ckptA.007.013.data
(PID.TID 0000.0001)  MDS_READ_SEC_XZ: opening file: pickup_orlanskiS.ckptA.008.013.data
(PID.TID 0000.0001)  MDS_READ_SEC_XZ: opening file: pickup_orlanskiS.ckptA.009.013.data
(PID.TID 0000.0001)  MDS_READ_SEC_XZ: opening file: pickup_orlanskiS.ckptA.010.013.data
(PID.TID 0000.0001)  MDS_READ_SEC_XZ: opening file: pickup_orlanskiS.ckptA.011.013.data
(PID.TID 0000.0001)  MDS_READ_SEC_XZ: opening file: pickup_orlanskiS.ckptA.012.013.data
(PID.TID 0000.0001)  MDS_READ_SEC_XZ: opening file: pickup_orlanskiS.ckptA.013.013.data
(PID.TID 0000.0001)  MDS_READ_SEC_XZ: opening file: pickup_orlanskiS.ckptA.014.013.data
(PID.TID 0000.0001)  MDS_READ_SEC_XZ: opening file: pickup_orlanskiS.ckptA.015.013.data
(PID.TID 0000.0001)  MDS_READ_SEC_XZ: opening file: pickup_orlanskiS.ckptA.001.014.data
(PID.TID 0000.0001)  MDS_READ_SEC_XZ: opening file: pickup_orlanskiS.ckptA.002.014.data
(PID.TID 0000.0001)  MDS_READ_SEC_XZ: opening file: pickup_orlanskiS.ckptA.003.014.data
(PID.TID 0000.0001)  MDS_READ_SEC_XZ: opening file: pickup_orlanskiS.ckptA.004.014.data
(PID.TID 0000.0001)  MDS_READ_SEC_XZ: opening file: pickup_orlanskiS.ckptA.005.014.data
(PID.TID 0000.0001)  MDS_READ_SEC_XZ: opening file: pickup_orlanskiS.ckptA.006.014.data
(PID.TID 0000.0001)  MDS_READ_SEC_XZ: opening file: pickup_orlanskiS.ckptA.007.014.data
(PID.TID 0000.0001)  MDS_READ_SEC_XZ: opening file: pickup_orlanskiS.ckptA.008.014.data
(PID.TID 0000.0001)  MDS_READ_SEC_XZ: opening file: pickup_orlanskiS.ckptA.009.014.data
(PID.TID 0000.0001)  MDS_READ_SEC_XZ: opening file: pickup_orlanskiS.ckptA.010.014.data
(PID.TID 0000.0001)  MDS_READ_SEC_XZ: opening file: pickup_orlanskiS.ckptA.011.014.data
(PID.TID 0000.0001)  MDS_READ_SEC_XZ: opening file: pickup_orlanskiS.ckptA.012.014.data
(PID.TID 0000.0001)  MDS_READ_SEC_XZ: opening file: pickup_orlanskiS.ckptA.013.014.data
(PID.TID 0000.0001)  MDS_READ_SEC_XZ: opening file: pickup_orlanskiS.ckptA.014.014.data
(PID.TID 0000.0001)  MDS_READ_SEC_XZ: opening file: pickup_orlanskiS.ckptA.015.014.data
(PID.TID 0000.0001)  MDS_READ_SEC_XZ: opening file: pickup_orlanskiS.ckptA.001.015.data
(PID.TID 0000.0001)  MDS_READ_SEC_XZ: opening file: pickup_orlanskiS.ckptA.002.015.data
(PID.TID 0000.0001)  MDS_READ_SEC_XZ: opening file: pickup_orlanskiS.ckptA.003.015.data
(PID.TID 0000.0001)  MDS_READ_SEC_XZ: opening file: pickup_orlanskiS.ckptA.004.015.data
(PID.TID 0000.0001)  MDS_READ_SEC_XZ: opening file: pickup_orlanskiS.ckptA.005.015.data
(PID.TID 0000.0001)  MDS_READ_SEC_XZ: opening file: pickup_orlanskiS.ckptA.006.015.data
(PID.TID 0000.0001)  MDS_READ_SEC_XZ: opening file: pickup_orlanskiS.ckptA.007.015.data
(PID.TID 0000.0001)  MDS_READ_SEC_XZ: opening file: pickup_orlanskiS.ckptA.008.015.data
(PID.TID 0000.0001)  MDS_READ_SEC_XZ: opening file: pickup_orlanskiS.ckptA.009.015.data
(PID.TID 0000.0001)  MDS_READ_SEC_XZ: opening file: pickup_orlanskiS.ckptA.010.015.data
(PID.TID 0000.0001)  MDS_READ_SEC_XZ: opening file: pickup_orlanskiS.ckptA.011.015.data
(PID.TID 0000.0001)  MDS_READ_SEC_XZ: opening file: pickup_orlanskiS.ckptA.012.015.data
(PID.TID 0000.0001)  MDS_READ_SEC_XZ: opening file: pickup_orlanskiS.ckptA.013.015.data
(PID.TID 0000.0001)  MDS_READ_SEC_XZ: opening file: pickup_orlanskiS.ckptA.014.015.data
(PID.TID 0000.0001)  MDS_READ_SEC_XZ: opening file: pickup_orlanskiS.ckptA.015.015.data
(PID.TID 0000.0001)  MDS_READ_SEC_XZ: opening file: pickup_orlanskiS.ckptA.001.001.data
(PID.TID 0000.0001)  MDS_READ_SEC_XZ: opening file: pickup_orlanskiS.ckptA.002.001.data
(PID.TID 0000.0001)  MDS_READ_SEC_XZ: opening file: pickup_orlanskiS.ckptA.003.001.data
(PID.TID 0000.0001)  MDS_READ_SEC_XZ: opening file: pickup_orlanskiS.ckptA.004.001.data
(PID.TID 0000.0001)  MDS_READ_SEC_XZ: opening file: pickup_orlanskiS.ckptA.005.001.data
(PID.TID 0000.0001)  MDS_READ_SEC_XZ: opening file: pickup_orlanskiS.ckptA.006.001.data
(PID.TID 0000.0001)  MDS_READ_SEC_XZ: opening file: pickup_orlanskiS.ckptA.007.001.data
(PID.TID 0000.0001)  MDS_READ_SEC_XZ: opening file: pickup_orlanskiS.ckptA.008.001.data
(PID.TID 0000.0001)  MDS_READ_SEC_XZ: opening file: pickup_orlanskiS.ckptA.009.001.data
(PID.TID 0000.0001)  MDS_READ_SEC_XZ: opening file: pickup_orlanskiS.ckptA.010.001.data
(PID.TID 0000.0001)  MDS_READ_SEC_XZ: opening file: pickup_orlanskiS.ckptA.011.001.data
(PID.TID 0000.0001)  MDS_READ_SEC_XZ: opening file: pickup_orlanskiS.ckptA.012.001.data
(PID.TID 0000.0001)  MDS_READ_SEC_XZ: opening file: pickup_orlanskiS.ckptA.013.001.data
(PID.TID 0000.0001)  MDS_READ_SEC_XZ: opening file: pickup_orlanskiS.ckptA.014.001.data
(PID.TID 0000.0001)  MDS_READ_SEC_XZ: opening file: pickup_orlanskiS.ckptA.015.001.data
(PID.TID 0000.0001)  MDS_READ_SEC_XZ: opening file: pickup_orlanskiS.ckptA.001.002.data
(PID.TID 0000.0001)  MDS_READ_SEC_XZ: opening file: pickup_orlanskiS.ckptA.002.002.data
(PID.TID 0000.0001)  MDS_READ_SEC_XZ: opening file: pickup_orlanskiS.ckptA.003.002.data
(PID.TID 0000.0001)  MDS_READ_SEC_XZ: opening file: pickup_orlanskiS.ckptA.004.002.data
(PID.TID 0000.0001)  MDS_READ_SEC_XZ: opening file: pickup_orlanskiS.ckptA.005.002.data
(PID.TID 0000.0001)  MDS_READ_SEC_XZ: opening file: pickup_orlanskiS.ckptA.006.002.data
(PID.TID 0000.0001)  MDS_READ_SEC_XZ: opening file: pickup_orlanskiS.ckptA.007.002.data
(PID.TID 0000.0001)  MDS_READ_SEC_XZ: opening file: pickup_orlanskiS.ckptA.008.002.data
(PID.TID 0000.0001)  MDS_READ_SEC_XZ: opening file: pickup_orlanskiS.ckptA.009.002.data
(PID.TID 0000.0001)  MDS_READ_SEC_XZ: opening file: pickup_orlanskiS.ckptA.010.002.data
(PID.TID 0000.0001)  MDS_READ_SEC_XZ: opening file: pickup_orlanskiS.ckptA.011.002.data
(PID.TID 0000.0001)  MDS_READ_SEC_XZ: opening file: pickup_orlanskiS.ckptA.012.002.data
(PID.TID 0000.0001)  MDS_READ_SEC_XZ: opening file: pickup_orlanskiS.ckptA.013.002.data
(PID.TID 0000.0001)  MDS_READ_SEC_XZ: opening file: pickup_orlanskiS.ckptA.014.002.data
(PID.TID 0000.0001)  MDS_READ_SEC_XZ: opening file: pickup_orlanskiS.ckptA.015.002.data
(PID.TID 0000.0001)  MDS_READ_SEC_XZ: opening file: pickup_orlanskiS.ckptA.001.003.data
(PID.TID 0000.0001)  MDS_READ_SEC_XZ: opening file: pickup_orlanskiS.ckptA.002.003.data
(PID.TID 0000.0001)  MDS_READ_SEC_XZ: opening file: pickup_orlanskiS.ckptA.003.003.data
(PID.TID 0000.0001)  MDS_READ_SEC_XZ: opening file: pickup_orlanskiS.ckptA.004.003.data
(PID.TID 0000.0001)  MDS_READ_SEC_XZ: opening file: pickup_orlanskiS.ckptA.005.003.data
(PID.TID 0000.0001)  MDS_READ_SEC_XZ: opening file: pickup_orlanskiS.ckptA.006.003.data
(PID.TID 0000.0001)  MDS_READ_SEC_XZ: opening file: pickup_orlanskiS.ckptA.007.003.data
(PID.TID 0000.0001)  MDS_READ_SEC_XZ: opening file: pickup_orlanskiS.ckptA.008.003.data
(PID.TID 0000.0001)  MDS_READ_SEC_XZ: opening file: pickup_orlanskiS.ckptA.009.003.data
(PID.TID 0000.0001)  MDS_READ_SEC_XZ: opening file: pickup_orlanskiS.ckptA.010.003.data
(PID.TID 0000.0001)  MDS_READ_SEC_XZ: opening file: pickup_orlanskiS.ckptA.011.003.data
(PID.TID 0000.0001)  MDS_READ_SEC_XZ: opening file: pickup_orlanskiS.ckptA.012.003.data
(PID.TID 0000.0001)  MDS_READ_SEC_XZ: opening file: pickup_orlanskiS.ckptA.013.003.data
(PID.TID 0000.0001)  MDS_READ_SEC_XZ: opening file: pickup_orlanskiS.ckptA.014.003.data
(PID.TID 0000.0001)  MDS_READ_SEC_XZ: opening file: pickup_orlanskiS.ckptA.015.003.data
(PID.TID 0000.0001)  MDS_READ_SEC_XZ: opening file: pickup_orlanskiS.ckptA.001.004.data
(PID.TID 0000.0001)  MDS_READ_SEC_XZ: opening file: pickup_orlanskiS.ckptA.002.004.data
(PID.TID 0000.0001)  MDS_READ_SEC_XZ: opening file: pickup_orlanskiS.ckptA.003.004.data
(PID.TID 0000.0001)  MDS_READ_SEC_XZ: opening file: pickup_orlanskiS.ckptA.004.004.data
(PID.TID 0000.0001)  MDS_READ_SEC_XZ: opening file: pickup_orlanskiS.ckptA.005.004.data
(PID.TID 0000.0001)  MDS_READ_SEC_XZ: opening file: pickup_orlanskiS.ckptA.006.004.data
(PID.TID 0000.0001)  MDS_READ_SEC_XZ: opening file: pickup_orlanskiS.ckptA.007.004.data
(PID.TID 0000.0001)  MDS_READ_SEC_XZ: opening file: pickup_orlanskiS.ckptA.008.004.data
(PID.TID 0000.0001)  MDS_READ_SEC_XZ: opening file: pickup_orlanskiS.ckptA.009.004.data
(PID.TID 0000.0001)  MDS_READ_SEC_XZ: opening file: pickup_orlanskiS.ckptA.010.004.data
(PID.TID 0000.0001)  MDS_READ_SEC_XZ: opening file: pickup_orlanskiS.ckptA.011.004.data
(PID.TID 0000.0001)  MDS_READ_SEC_XZ: opening file: pickup_orlanskiS.ckptA.012.004.data
(PID.TID 0000.0001)  MDS_READ_SEC_XZ: opening file: pickup_orlanskiS.ckptA.013.004.data
(PID.TID 0000.0001)  MDS_READ_SEC_XZ: opening file: pickup_orlanskiS.ckptA.014.004.data
(PID.TID 0000.0001)  MDS_READ_SEC_XZ: opening file: pickup_orlanskiS.ckptA.015.004.data
(PID.TID 0000.0001)  MDS_READ_SEC_XZ: opening file: pickup_orlanskiS.ckptA.001.005.data
(PID.TID 0000.0001)  MDS_READ_SEC_XZ: opening file: pickup_orlanskiS.ckptA.002.005.data
(PID.TID 0000.0001)  MDS_READ_SEC_XZ: opening file: pickup_orlanskiS.ckptA.003.005.data
(PID.TID 0000.0001)  MDS_READ_SEC_XZ: opening file: pickup_orlanskiS.ckptA.004.005.data
(PID.TID 0000.0001)  MDS_READ_SEC_XZ: opening file: pickup_orlanskiS.ckptA.005.005.data
(PID.TID 0000.0001)  MDS_READ_SEC_XZ: opening file: pickup_orlanskiS.ckptA.006.005.data
(PID.TID 0000.0001)  MDS_READ_SEC_XZ: opening file: pickup_orlanskiS.ckptA.007.005.data
(PID.TID 0000.0001)  MDS_READ_SEC_XZ: opening file: pickup_orlanskiS.ckptA.008.005.data
(PID.TID 0000.0001)  MDS_READ_SEC_XZ: opening file: pickup_orlanskiS.ckptA.009.005.data
(PID.TID 0000.0001)  MDS_READ_SEC_XZ: opening file: pickup_orlanskiS.ckptA.010.005.data
(PID.TID 0000.0001)  MDS_READ_SEC_XZ: opening file: pickup_orlanskiS.ckptA.011.005.data
(PID.TID 0000.0001)  MDS_READ_SEC_XZ: opening file: pickup_orlanskiS.ckptA.012.005.data
(PID.TID 0000.0001)  MDS_READ_SEC_XZ: opening file: pickup_orlanskiS.ckptA.013.005.data
(PID.TID 0000.0001)  MDS_READ_SEC_XZ: opening file: pickup_orlanskiS.ckptA.014.005.data
(PID.TID 0000.0001)  MDS_READ_SEC_XZ: opening file: pickup_orlanskiS.ckptA.015.005.data
(PID.TID 0000.0001)  MDS_READ_SEC_XZ: opening file: pickup_orlanskiS.ckptA.001.006.data
(PID.TID 0000.0001)  MDS_READ_SEC_XZ: opening file: pickup_orlanskiS.ckptA.002.006.data
(PID.TID 0000.0001)  MDS_READ_SEC_XZ: opening file: pickup_orlanskiS.ckptA.003.006.data
(PID.TID 0000.0001)  MDS_READ_SEC_XZ: opening file: pickup_orlanskiS.ckptA.004.006.data
(PID.TID 0000.0001)  MDS_READ_SEC_XZ: opening file: pickup_orlanskiS.ckptA.005.006.data
(PID.TID 0000.0001)  MDS_READ_SEC_XZ: opening file: pickup_orlanskiS.ckptA.006.006.data
(PID.TID 0000.0001)  MDS_READ_SEC_XZ: opening file: pickup_orlanskiS.ckptA.007.006.data
(PID.TID 0000.0001)  MDS_READ_SEC_XZ: opening file: pickup_orlanskiS.ckptA.008.006.data
(PID.TID 0000.0001)  MDS_READ_SEC_XZ: opening file: pickup_orlanskiS.ckptA.009.006.data
(PID.TID 0000.0001)  MDS_READ_SEC_XZ: opening file: pickup_orlanskiS.ckptA.010.006.data
(PID.TID 0000.0001)  MDS_READ_SEC_XZ: opening file: pickup_orlanskiS.ckptA.011.006.data
(PID.TID 0000.0001)  MDS_READ_SEC_XZ: opening file: pickup_orlanskiS.ckptA.012.006.data
(PID.TID 0000.0001)  MDS_READ_SEC_XZ: opening file: pickup_orlanskiS.ckptA.013.006.data
(PID.TID 0000.0001)  MDS_READ_SEC_XZ: opening file: pickup_orlanskiS.ckptA.014.006.data
(PID.TID 0000.0001)  MDS_READ_SEC_XZ: opening file: pickup_orlanskiS.ckptA.015.006.data
(PID.TID 0000.0001)  MDS_READ_SEC_XZ: opening file: pickup_orlanskiS.ckptA.001.007.data
(PID.TID 0000.0001)  MDS_READ_SEC_XZ: opening file: pickup_orlanskiS.ckptA.002.007.data
(PID.TID 0000.0001)  MDS_READ_SEC_XZ: opening file: pickup_orlanskiS.ckptA.003.007.data
(PID.TID 0000.0001)  MDS_READ_SEC_XZ: opening file: pickup_orlanskiS.ckptA.004.007.data
(PID.TID 0000.0001)  MDS_READ_SEC_XZ: opening file: pickup_orlanskiS.ckptA.005.007.data
(PID.TID 0000.0001)  MDS_READ_SEC_XZ: opening file: pickup_orlanskiS.ckptA.006.007.data
(PID.TID 0000.0001)  MDS_READ_SEC_XZ: opening file: pickup_orlanskiS.ckptA.007.007.data
(PID.TID 0000.0001)  MDS_READ_SEC_XZ: opening file: pickup_orlanskiS.ckptA.008.007.data
(PID.TID 0000.0001)  MDS_READ_SEC_XZ: opening file: pickup_orlanskiS.ckptA.009.007.data
(PID.TID 0000.0001)  MDS_READ_SEC_XZ: opening file: pickup_orlanskiS.ckptA.010.007.data
(PID.TID 0000.0001)  MDS_READ_SEC_XZ: opening file: pickup_orlanskiS.ckptA.011.007.data
(PID.TID 0000.0001)  MDS_READ_SEC_XZ: opening file: pickup_orlanskiS.ckptA.012.007.data
(PID.TID 0000.0001)  MDS_READ_SEC_XZ: opening file: pickup_orlanskiS.ckptA.013.007.data
(PID.TID 0000.0001)  MDS_READ_SEC_XZ: opening file: pickup_orlanskiS.ckptA.014.007.data
(PID.TID 0000.0001)  MDS_READ_SEC_XZ: opening file: pickup_orlanskiS.ckptA.015.007.data
(PID.TID 0000.0001)  MDS_READ_SEC_XZ: opening file: pickup_orlanskiS.ckptA.001.008.data
(PID.TID 0000.0001)  MDS_READ_SEC_XZ: opening file: pickup_orlanskiS.ckptA.002.008.data
(PID.TID 0000.0001)  MDS_READ_SEC_XZ: opening file: pickup_orlanskiS.ckptA.003.008.data
(PID.TID 0000.0001)  MDS_READ_SEC_XZ: opening file: pickup_orlanskiS.ckptA.004.008.data
(PID.TID 0000.0001)  MDS_READ_SEC_XZ: opening file: pickup_orlanskiS.ckptA.005.008.data
(PID.TID 0000.0001)  MDS_READ_SEC_XZ: opening file: pickup_orlanskiS.ckptA.006.008.data
(PID.TID 0000.0001)  MDS_READ_SEC_XZ: opening file: pickup_orlanskiS.ckptA.007.008.data
(PID.TID 0000.0001)  MDS_READ_SEC_XZ: opening file: pickup_orlanskiS.ckptA.008.008.data
(PID.TID 0000.0001)  MDS_READ_SEC_XZ: opening file: pickup_orlanskiS.ckptA.009.008.data
(PID.TID 0000.0001)  MDS_READ_SEC_XZ: opening file: pickup_orlanskiS.ckptA.010.008.data
(PID.TID 0000.0001)  MDS_READ_SEC_XZ: opening file: pickup_orlanskiS.ckptA.011.008.data
(PID.TID 0000.0001)  MDS_READ_SEC_XZ: opening file: pickup_orlanskiS.ckptA.012.008.data
(PID.TID 0000.0001)  MDS_READ_SEC_XZ: opening file: pickup_orlanskiS.ckptA.013.008.data
(PID.TID 0000.0001)  MDS_READ_SEC_XZ: opening file: pickup_orlanskiS.ckptA.014.008.data
(PID.TID 0000.0001)  MDS_READ_SEC_XZ: opening file: pickup_orlanskiS.ckptA.015.008.data
(PID.TID 0000.0001)  MDS_READ_SEC_XZ: opening file: pickup_orlanskiS.ckptA.001.009.data
(PID.TID 0000.0001)  MDS_READ_SEC_XZ: opening file: pickup_orlanskiS.ckptA.002.009.data
(PID.TID 0000.0001)  MDS_READ_SEC_XZ: opening file: pickup_orlanskiS.ckptA.003.009.data
(PID.TID 0000.0001)  MDS_READ_SEC_XZ: opening file: pickup_orlanskiS.ckptA.004.009.data
(PID.TID 0000.0001)  MDS_READ_SEC_XZ: opening file: pickup_orlanskiS.ckptA.005.009.data
(PID.TID 0000.0001)  MDS_READ_SEC_XZ: opening file: pickup_orlanskiS.ckptA.006.009.data
(PID.TID 0000.0001)  MDS_READ_SEC_XZ: opening file: pickup_orlanskiS.ckptA.007.009.data
(PID.TID 0000.0001)  MDS_READ_SEC_XZ: opening file: pickup_orlanskiS.ckptA.008.009.data
(PID.TID 0000.0001)  MDS_READ_SEC_XZ: opening file: pickup_orlanskiS.ckptA.009.009.data
(PID.TID 0000.0001)  MDS_READ_SEC_XZ: opening file: pickup_orlanskiS.ckptA.010.009.data
(PID.TID 0000.0001)  MDS_READ_SEC_XZ: opening file: pickup_orlanskiS.ckptA.011.009.data
(PID.TID 0000.0001)  MDS_READ_SEC_XZ: opening file: pickup_orlanskiS.ckptA.012.009.data
(PID.TID 0000.0001)  MDS_READ_SEC_XZ: opening file: pickup_orlanskiS.ckptA.013.009.data
(PID.TID 0000.0001)  MDS_READ_SEC_XZ: opening file: pickup_orlanskiS.ckptA.014.009.data
(PID.TID 0000.0001)  MDS_READ_SEC_XZ: opening file: pickup_orlanskiS.ckptA.015.009.data
(PID.TID 0000.0001)  MDS_READ_SEC_XZ: opening file: pickup_orlanskiS.ckptA.001.010.data
(PID.TID 0000.0001)  MDS_READ_SEC_XZ: opening file: pickup_orlanskiS.ckptA.002.010.data
(PID.TID 0000.0001)  MDS_READ_SEC_XZ: opening file: pickup_orlanskiS.ckptA.003.010.data
(PID.TID 0000.0001)  MDS_READ_SEC_XZ: opening file: pickup_orlanskiS.ckptA.004.010.data
(PID.TID 0000.0001)  MDS_READ_SEC_XZ: opening file: pickup_orlanskiS.ckptA.005.010.data
(PID.TID 0000.0001)  MDS_READ_SEC_XZ: opening file: pickup_orlanskiS.ckptA.006.010.data
(PID.TID 0000.0001)  MDS_READ_SEC_XZ: opening file: pickup_orlanskiS.ckptA.007.010.data
(PID.TID 0000.0001)  MDS_READ_SEC_XZ: opening file: pickup_orlanskiS.ckptA.008.010.data
(PID.TID 0000.0001)  MDS_READ_SEC_XZ: opening file: pickup_orlanskiS.ckptA.009.010.data
(PID.TID 0000.0001)  MDS_READ_SEC_XZ: opening file: pickup_orlanskiS.ckptA.010.010.data
(PID.TID 0000.0001)  MDS_READ_SEC_XZ: opening file: pickup_orlanskiS.ckptA.011.010.data
(PID.TID 0000.0001)  MDS_READ_SEC_XZ: opening file: pickup_orlanskiS.ckptA.012.010.data
(PID.TID 0000.0001)  MDS_READ_SEC_XZ: opening file: pickup_orlanskiS.ckptA.013.010.data
(PID.TID 0000.0001)  MDS_READ_SEC_XZ: opening file: pickup_orlanskiS.ckptA.014.010.data
(PID.TID 0000.0001)  MDS_READ_SEC_XZ: opening file: pickup_orlanskiS.ckptA.015.010.data
(PID.TID 0000.0001)  MDS_READ_SEC_XZ: opening file: pickup_orlanskiS.ckptA.001.011.data
(PID.TID 0000.0001)  MDS_READ_SEC_XZ: opening file: pickup_orlanskiS.ckptA.002.011.data
(PID.TID 0000.0001)  MDS_READ_SEC_XZ: opening file: pickup_orlanskiS.ckptA.003.011.data
(PID.TID 0000.0001)  MDS_READ_SEC_XZ: opening file: pickup_orlanskiS.ckptA.004.011.data
(PID.TID 0000.0001)  MDS_READ_SEC_XZ: opening file: pickup_orlanskiS.ckptA.005.011.data
(PID.TID 0000.0001)  MDS_READ_SEC_XZ: opening file: pickup_orlanskiS.ckptA.006.011.data
(PID.TID 0000.0001)  MDS_READ_SEC_XZ: opening file: pickup_orlanskiS.ckptA.007.011.data
(PID.TID 0000.0001)  MDS_READ_SEC_XZ: opening file: pickup_orlanskiS.ckptA.008.011.data
(PID.TID 0000.0001)  MDS_READ_SEC_XZ: opening file: pickup_orlanskiS.ckptA.009.011.data
(PID.TID 0000.0001)  MDS_READ_SEC_XZ: opening file: pickup_orlanskiS.ckptA.010.011.data
(PID.TID 0000.0001)  MDS_READ_SEC_XZ: opening file: pickup_orlanskiS.ckptA.011.011.data
(PID.TID 0000.0001)  MDS_READ_SEC_XZ: opening file: pickup_orlanskiS.ckptA.012.011.data
(PID.TID 0000.0001)  MDS_READ_SEC_XZ: opening file: pickup_orlanskiS.ckptA.013.011.data
(PID.TID 0000.0001)  MDS_READ_SEC_XZ: opening file: pickup_orlanskiS.ckptA.014.011.data
(PID.TID 0000.0001)  MDS_READ_SEC_XZ: opening file: pickup_orlanskiS.ckptA.015.011.data
(PID.TID 0000.0001)  MDS_READ_SEC_XZ: opening file: pickup_orlanskiS.ckptA.001.012.data
(PID.TID 0000.0001)  MDS_READ_SEC_XZ: opening file: pickup_orlanskiS.ckptA.002.012.data
(PID.TID 0000.0001)  MDS_READ_SEC_XZ: opening file: pickup_orlanskiS.ckptA.003.012.data
(PID.TID 0000.0001)  MDS_READ_SEC_XZ: opening file: pickup_orlanskiS.ckptA.004.012.data
(PID.TID 0000.0001)  MDS_READ_SEC_XZ: opening file: pickup_orlanskiS.ckptA.005.012.data
(PID.TID 0000.0001)  MDS_READ_SEC_XZ: opening file: pickup_orlanskiS.ckptA.006.012.data
(PID.TID 0000.0001)  MDS_READ_SEC_XZ: opening file: pickup_orlanskiS.ckptA.007.012.data
(PID.TID 0000.0001)  MDS_READ_SEC_XZ: opening file: pickup_orlanskiS.ckptA.008.012.data
(PID.TID 0000.0001)  MDS_READ_SEC_XZ: opening file: pickup_orlanskiS.ckptA.009.012.data
(PID.TID 0000.0001)  MDS_READ_SEC_XZ: opening file: pickup_orlanskiS.ckptA.010.012.data
(PID.TID 0000.0001)  MDS_READ_SEC_XZ: opening file: pickup_orlanskiS.ckptA.011.012.data
(PID.TID 0000.0001)  MDS_READ_SEC_XZ: opening file: pickup_orlanskiS.ckptA.012.012.data
(PID.TID 0000.0001)  MDS_READ_SEC_XZ: opening file: pickup_orlanskiS.ckptA.013.012.data
(PID.TID 0000.0001)  MDS_READ_SEC_XZ: opening file: pickup_orlanskiS.ckptA.014.012.data
(PID.TID 0000.0001)  MDS_READ_SEC_XZ: opening file: pickup_orlanskiS.ckptA.015.012.data
(PID.TID 0000.0001)  MDS_READ_SEC_XZ: opening file: pickup_orlanskiS.ckptA.001.013.data
(PID.TID 0000.0001)  MDS_READ_SEC_XZ: opening file: pickup_orlanskiS.ckptA.002.013.data
(PID.TID 0000.0001)  MDS_READ_SEC_XZ: opening file: pickup_orlanskiS.ckptA.003.013.data
(PID.TID 0000.0001)  MDS_READ_SEC_XZ: opening file: pickup_orlanskiS.ckptA.004.013.data
(PID.TID 0000.0001)  MDS_READ_SEC_XZ: opening file: pickup_orlanskiS.ckptA.005.013.data
(PID.TID 0000.0001)  MDS_READ_SEC_XZ: opening file: pickup_orlanskiS.ckptA.006.013.data
(PID.TID 0000.0001)  MDS_READ_SEC_XZ: opening file: pickup_orlanskiS.ckptA.007.013.data
(PID.TID 0000.0001)  MDS_READ_SEC_XZ: opening file: pickup_orlanskiS.ckptA.008.013.data
(PID.TID 0000.0001)  MDS_READ_SEC_XZ: opening file: pickup_orlanskiS.ckptA.009.013.data
(PID.TID 0000.0001)  MDS_READ_SEC_XZ: opening file: pickup_orlanskiS.ckptA.010.013.data
(PID.TID 0000.0001)  MDS_READ_SEC_XZ: opening file: pickup_orlanskiS.ckptA.011.013.data
(PID.TID 0000.0001)  MDS_READ_SEC_XZ: opening file: pickup_orlanskiS.ckptA.012.013.data
(PID.TID 0000.0001)  MDS_READ_SEC_XZ: opening file: pickup_orlanskiS.ckptA.013.013.data
(PID.TID 0000.0001)  MDS_READ_SEC_XZ: opening file: pickup_orlanskiS.ckptA.014.013.data
(PID.TID 0000.0001)  MDS_READ_SEC_XZ: opening file: pickup_orlanskiS.ckptA.015.013.data
(PID.TID 0000.0001)  MDS_READ_SEC_XZ: opening file: pickup_orlanskiS.ckptA.001.014.data
(PID.TID 0000.0001)  MDS_READ_SEC_XZ: opening file: pickup_orlanskiS.ckptA.002.014.data
(PID.TID 0000.0001)  MDS_READ_SEC_XZ: opening file: pickup_orlanskiS.ckptA.003.014.data
(PID.TID 0000.0001)  MDS_READ_SEC_XZ: opening file: pickup_orlanskiS.ckptA.004.014.data
(PID.TID 0000.0001)  MDS_READ_SEC_XZ: opening file: pickup_orlanskiS.ckptA.005.014.data
(PID.TID 0000.0001)  MDS_READ_SEC_XZ: opening file: pickup_orlanskiS.ckptA.006.014.data
(PID.TID 0000.0001)  MDS_READ_SEC_XZ: opening file: pickup_orlanskiS.ckptA.007.014.data
(PID.TID 0000.0001)  MDS_READ_SEC_XZ: opening file: pickup_orlanskiS.ckptA.008.014.data
(PID.TID 0000.0001)  MDS_READ_SEC_XZ: opening file: pickup_orlanskiS.ckptA.009.014.data
(PID.TID 0000.0001)  MDS_READ_SEC_XZ: opening file: pickup_orlanskiS.ckptA.010.014.data
(PID.TID 0000.0001)  MDS_READ_SEC_XZ: opening file: pickup_orlanskiS.ckptA.011.014.data
(PID.TID 0000.0001)  MDS_READ_SEC_XZ: opening file: pickup_orlanskiS.ckptA.012.014.data
(PID.TID 0000.0001)  MDS_READ_SEC_XZ: opening file: pickup_orlanskiS.ckptA.013.014.data
(PID.TID 0000.0001)  MDS_READ_SEC_XZ: opening file: pickup_orlanskiS.ckptA.014.014.data
(PID.TID 0000.0001)  MDS_READ_SEC_XZ: opening file: pickup_orlanskiS.ckptA.015.014.data
(PID.TID 0000.0001)  MDS_READ_SEC_XZ: opening file: pickup_orlanskiS.ckptA.001.015.data
(PID.TID 0000.0001)  MDS_READ_SEC_XZ: opening file: pickup_orlanskiS.ckptA.002.015.data
(PID.TID 0000.0001)  MDS_READ_SEC_XZ: opening file: pickup_orlanskiS.ckptA.003.015.data
(PID.TID 0000.0001)  MDS_READ_SEC_XZ: opening file: pickup_orlanskiS.ckptA.004.015.data
(PID.TID 0000.0001)  MDS_READ_SEC_XZ: opening file: pickup_orlanskiS.ckptA.005.015.data
(PID.TID 0000.0001)  MDS_READ_SEC_XZ: opening file: pickup_orlanskiS.ckptA.006.015.data
(PID.TID 0000.0001)  MDS_READ_SEC_XZ: opening file: pickup_orlanskiS.ckptA.007.015.data
(PID.TID 0000.0001)  MDS_READ_SEC_XZ: opening file: pickup_orlanskiS.ckptA.008.015.data
(PID.TID 0000.0001)  MDS_READ_SEC_XZ: opening file: pickup_orlanskiS.ckptA.009.015.data
(PID.TID 0000.0001)  MDS_READ_SEC_XZ: opening file: pickup_orlanskiS.ckptA.010.015.data
(PID.TID 0000.0001)  MDS_READ_SEC_XZ: opening file: pickup_orlanskiS.ckptA.011.015.data
(PID.TID 0000.0001)  MDS_READ_SEC_XZ: opening file: pickup_orlanskiS.ckptA.012.015.data
(PID.TID 0000.0001)  MDS_READ_SEC_XZ: opening file: pickup_orlanskiS.ckptA.013.015.data
(PID.TID 0000.0001)  MDS_READ_SEC_XZ: opening file: pickup_orlanskiS.ckptA.014.015.data
(PID.TID 0000.0001)  MDS_READ_SEC_XZ: opening file: pickup_orlanskiS.ckptA.015.015.data
(PID.TID 0000.0001)  MDS_READ_SEC_XZ: opening file: pickup_orlanskiS.ckptA.001.001.data
(PID.TID 0000.0001)  MDS_READ_SEC_XZ: opening file: pickup_orlanskiS.ckptA.002.001.data
(PID.TID 0000.0001)  MDS_READ_SEC_XZ: opening file: pickup_orlanskiS.ckptA.003.001.data
(PID.TID 0000.0001)  MDS_READ_SEC_XZ: opening file: pickup_orlanskiS.ckptA.004.001.data
(PID.TID 0000.0001)  MDS_READ_SEC_XZ: opening file: pickup_orlanskiS.ckptA.005.001.data
(PID.TID 0000.0001)  MDS_READ_SEC_XZ: opening file: pickup_orlanskiS.ckptA.006.001.data
(PID.TID 0000.0001)  MDS_READ_SEC_XZ: opening file: pickup_orlanskiS.ckptA.007.001.data
(PID.TID 0000.0001)  MDS_READ_SEC_XZ: opening file: pickup_orlanskiS.ckptA.008.001.data
(PID.TID 0000.0001)  MDS_READ_SEC_XZ: opening file: pickup_orlanskiS.ckptA.009.001.data
(PID.TID 0000.0001)  MDS_READ_SEC_XZ: opening file: pickup_orlanskiS.ckptA.010.001.data
(PID.TID 0000.0001)  MDS_READ_SEC_XZ: opening file: pickup_orlanskiS.ckptA.011.001.data
(PID.TID 0000.0001)  MDS_READ_SEC_XZ: opening file: pickup_orlanskiS.ckptA.012.001.data
(PID.TID 0000.0001)  MDS_READ_SEC_XZ: opening file: pickup_orlanskiS.ckptA.013.001.data
(PID.TID 0000.0001)  MDS_READ_SEC_XZ: opening file: pickup_orlanskiS.ckptA.014.001.data
(PID.TID 0000.0001)  MDS_READ_SEC_XZ: opening file: pickup_orlanskiS.ckptA.015.001.data
(PID.TID 0000.0001)  MDS_READ_SEC_XZ: opening file: pickup_orlanskiS.ckptA.001.002.data
(PID.TID 0000.0001)  MDS_READ_SEC_XZ: opening file: pickup_orlanskiS.ckptA.002.002.data
(PID.TID 0000.0001)  MDS_READ_SEC_XZ: opening file: pickup_orlanskiS.ckptA.003.002.data
(PID.TID 0000.0001)  MDS_READ_SEC_XZ: opening file: pickup_orlanskiS.ckptA.004.002.data
(PID.TID 0000.0001)  MDS_READ_SEC_XZ: opening file: pickup_orlanskiS.ckptA.005.002.data
(PID.TID 0000.0001)  MDS_READ_SEC_XZ: opening file: pickup_orlanskiS.ckptA.006.002.data
(PID.TID 0000.0001)  MDS_READ_SEC_XZ: opening file: pickup_orlanskiS.ckptA.007.002.data
(PID.TID 0000.0001)  MDS_READ_SEC_XZ: opening file: pickup_orlanskiS.ckptA.008.002.data
(PID.TID 0000.0001)  MDS_READ_SEC_XZ: opening file: pickup_orlanskiS.ckptA.009.002.data
(PID.TID 0000.0001)  MDS_READ_SEC_XZ: opening file: pickup_orlanskiS.ckptA.010.002.data
(PID.TID 0000.0001)  MDS_READ_SEC_XZ: opening file: pickup_orlanskiS.ckptA.011.002.data
(PID.TID 0000.0001)  MDS_READ_SEC_XZ: opening file: pickup_orlanskiS.ckptA.012.002.data
(PID.TID 0000.0001)  MDS_READ_SEC_XZ: opening file: pickup_orlanskiS.ckptA.013.002.data
(PID.TID 0000.0001)  MDS_READ_SEC_XZ: opening file: pickup_orlanskiS.ckptA.014.002.data
(PID.TID 0000.0001)  MDS_READ_SEC_XZ: opening file: pickup_orlanskiS.ckptA.015.002.data
(PID.TID 0000.0001)  MDS_READ_SEC_XZ: opening file: pickup_orlanskiS.ckptA.001.003.data
(PID.TID 0000.0001)  MDS_READ_SEC_XZ: opening file: pickup_orlanskiS.ckptA.002.003.data
(PID.TID 0000.0001)  MDS_READ_SEC_XZ: opening file: pickup_orlanskiS.ckptA.003.003.data
(PID.TID 0000.0001)  MDS_READ_SEC_XZ: opening file: pickup_orlanskiS.ckptA.004.003.data
(PID.TID 0000.0001)  MDS_READ_SEC_XZ: opening file: pickup_orlanskiS.ckptA.005.003.data
(PID.TID 0000.0001)  MDS_READ_SEC_XZ: opening file: pickup_orlanskiS.ckptA.006.003.data
(PID.TID 0000.0001)  MDS_READ_SEC_XZ: opening file: pickup_orlanskiS.ckptA.007.003.data
(PID.TID 0000.0001)  MDS_READ_SEC_XZ: opening file: pickup_orlanskiS.ckptA.008.003.data
(PID.TID 0000.0001)  MDS_READ_SEC_XZ: opening file: pickup_orlanskiS.ckptA.009.003.data
(PID.TID 0000.0001)  MDS_READ_SEC_XZ: opening file: pickup_orlanskiS.ckptA.010.003.data
(PID.TID 0000.0001)  MDS_READ_SEC_XZ: opening file: pickup_orlanskiS.ckptA.011.003.data
(PID.TID 0000.0001)  MDS_READ_SEC_XZ: opening file: pickup_orlanskiS.ckptA.012.003.data
(PID.TID 0000.0001)  MDS_READ_SEC_XZ: opening file: pickup_orlanskiS.ckptA.013.003.data
(PID.TID 0000.0001)  MDS_READ_SEC_XZ: opening file: pickup_orlanskiS.ckptA.014.003.data
(PID.TID 0000.0001)  MDS_READ_SEC_XZ: opening file: pickup_orlanskiS.ckptA.015.003.data
(PID.TID 0000.0001)  MDS_READ_SEC_XZ: opening file: pickup_orlanskiS.ckptA.001.004.data
(PID.TID 0000.0001)  MDS_READ_SEC_XZ: opening file: pickup_orlanskiS.ckptA.002.004.data
(PID.TID 0000.0001)  MDS_READ_SEC_XZ: opening file: pickup_orlanskiS.ckptA.003.004.data
(PID.TID 0000.0001)  MDS_READ_SEC_XZ: opening file: pickup_orlanskiS.ckptA.004.004.data
(PID.TID 0000.0001)  MDS_READ_SEC_XZ: opening file: pickup_orlanskiS.ckptA.005.004.data
(PID.TID 0000.0001)  MDS_READ_SEC_XZ: opening file: pickup_orlanskiS.ckptA.006.004.data
(PID.TID 0000.0001)  MDS_READ_SEC_XZ: opening file: pickup_orlanskiS.ckptA.007.004.data
(PID.TID 0000.0001)  MDS_READ_SEC_XZ: opening file: pickup_orlanskiS.ckptA.008.004.data
(PID.TID 0000.0001)  MDS_READ_SEC_XZ: opening file: pickup_orlanskiS.ckptA.009.004.data
(PID.TID 0000.0001)  MDS_READ_SEC_XZ: opening file: pickup_orlanskiS.ckptA.010.004.data
(PID.TID 0000.0001)  MDS_READ_SEC_XZ: opening file: pickup_orlanskiS.ckptA.011.004.data
(PID.TID 0000.0001)  MDS_READ_SEC_XZ: opening file: pickup_orlanskiS.ckptA.012.004.data
(PID.TID 0000.0001)  MDS_READ_SEC_XZ: opening file: pickup_orlanskiS.ckptA.013.004.data
(PID.TID 0000.0001)  MDS_READ_SEC_XZ: opening file: pickup_orlanskiS.ckptA.014.004.data
(PID.TID 0000.0001)  MDS_READ_SEC_XZ: opening file: pickup_orlanskiS.ckptA.015.004.data
(PID.TID 0000.0001)  MDS_READ_SEC_XZ: opening file: pickup_orlanskiS.ckptA.001.005.data
(PID.TID 0000.0001)  MDS_READ_SEC_XZ: opening file: pickup_orlanskiS.ckptA.002.005.data
(PID.TID 0000.0001)  MDS_READ_SEC_XZ: opening file: pickup_orlanskiS.ckptA.003.005.data
(PID.TID 0000.0001)  MDS_READ_SEC_XZ: opening file: pickup_orlanskiS.ckptA.004.005.data
(PID.TID 0000.0001)  MDS_READ_SEC_XZ: opening file: pickup_orlanskiS.ckptA.005.005.data
(PID.TID 0000.0001)  MDS_READ_SEC_XZ: opening file: pickup_orlanskiS.ckptA.006.005.data
(PID.TID 0000.0001)  MDS_READ_SEC_XZ: opening file: pickup_orlanskiS.ckptA.007.005.data
(PID.TID 0000.0001)  MDS_READ_SEC_XZ: opening file: pickup_orlanskiS.ckptA.008.005.data
(PID.TID 0000.0001)  MDS_READ_SEC_XZ: opening file: pickup_orlanskiS.ckptA.009.005.data
(PID.TID 0000.0001)  MDS_READ_SEC_XZ: opening file: pickup_orlanskiS.ckptA.010.005.data
(PID.TID 0000.0001)  MDS_READ_SEC_XZ: opening file: pickup_orlanskiS.ckptA.011.005.data
(PID.TID 0000.0001)  MDS_READ_SEC_XZ: opening file: pickup_orlanskiS.ckptA.012.005.data
(PID.TID 0000.0001)  MDS_READ_SEC_XZ: opening file: pickup_orlanskiS.ckptA.013.005.data
(PID.TID 0000.0001)  MDS_READ_SEC_XZ: opening file: pickup_orlanskiS.ckptA.014.005.data
(PID.TID 0000.0001)  MDS_READ_SEC_XZ: opening file: pickup_orlanskiS.ckptA.015.005.data
(PID.TID 0000.0001)  MDS_READ_SEC_XZ: opening file: pickup_orlanskiS.ckptA.001.006.data
(PID.TID 0000.0001)  MDS_READ_SEC_XZ: opening file: pickup_orlanskiS.ckptA.002.006.data
(PID.TID 0000.0001)  MDS_READ_SEC_XZ: opening file: pickup_orlanskiS.ckptA.003.006.data
(PID.TID 0000.0001)  MDS_READ_SEC_XZ: opening file: pickup_orlanskiS.ckptA.004.006.data
(PID.TID 0000.0001)  MDS_READ_SEC_XZ: opening file: pickup_orlanskiS.ckptA.005.006.data
(PID.TID 0000.0001)  MDS_READ_SEC_XZ: opening file: pickup_orlanskiS.ckptA.006.006.data
(PID.TID 0000.0001)  MDS_READ_SEC_XZ: opening file: pickup_orlanskiS.ckptA.007.006.data
(PID.TID 0000.0001)  MDS_READ_SEC_XZ: opening file: pickup_orlanskiS.ckptA.008.006.data
(PID.TID 0000.0001)  MDS_READ_SEC_XZ: opening file: pickup_orlanskiS.ckptA.009.006.data
(PID.TID 0000.0001)  MDS_READ_SEC_XZ: opening file: pickup_orlanskiS.ckptA.010.006.data
(PID.TID 0000.0001)  MDS_READ_SEC_XZ: opening file: pickup_orlanskiS.ckptA.011.006.data
(PID.TID 0000.0001)  MDS_READ_SEC_XZ: opening file: pickup_orlanskiS.ckptA.012.006.data
(PID.TID 0000.0001)  MDS_READ_SEC_XZ: opening file: pickup_orlanskiS.ckptA.013.006.data
(PID.TID 0000.0001)  MDS_READ_SEC_XZ: opening file: pickup_orlanskiS.ckptA.014.006.data
(PID.TID 0000.0001)  MDS_READ_SEC_XZ: opening file: pickup_orlanskiS.ckptA.015.006.data
(PID.TID 0000.0001)  MDS_READ_SEC_XZ: opening file: pickup_orlanskiS.ckptA.001.007.data
(PID.TID 0000.0001)  MDS_READ_SEC_XZ: opening file: pickup_orlanskiS.ckptA.002.007.data
(PID.TID 0000.0001)  MDS_READ_SEC_XZ: opening file: pickup_orlanskiS.ckptA.003.007.data
(PID.TID 0000.0001)  MDS_READ_SEC_XZ: opening file: pickup_orlanskiS.ckptA.004.007.data
(PID.TID 0000.0001)  MDS_READ_SEC_XZ: opening file: pickup_orlanskiS.ckptA.005.007.data
(PID.TID 0000.0001)  MDS_READ_SEC_XZ: opening file: pickup_orlanskiS.ckptA.006.007.data
(PID.TID 0000.0001)  MDS_READ_SEC_XZ: opening file: pickup_orlanskiS.ckptA.007.007.data
(PID.TID 0000.0001)  MDS_READ_SEC_XZ: opening file: pickup_orlanskiS.ckptA.008.007.data
(PID.TID 0000.0001)  MDS_READ_SEC_XZ: opening file: pickup_orlanskiS.ckptA.009.007.data
(PID.TID 0000.0001)  MDS_READ_SEC_XZ: opening file: pickup_orlanskiS.ckptA.010.007.data
(PID.TID 0000.0001)  MDS_READ_SEC_XZ: opening file: pickup_orlanskiS.ckptA.011.007.data
(PID.TID 0000.0001)  MDS_READ_SEC_XZ: opening file: pickup_orlanskiS.ckptA.012.007.data
(PID.TID 0000.0001)  MDS_READ_SEC_XZ: opening file: pickup_orlanskiS.ckptA.013.007.data
(PID.TID 0000.0001)  MDS_READ_SEC_XZ: opening file: pickup_orlanskiS.ckptA.014.007.data
(PID.TID 0000.0001)  MDS_READ_SEC_XZ: opening file: pickup_orlanskiS.ckptA.015.007.data
(PID.TID 0000.0001)  MDS_READ_SEC_XZ: opening file: pickup_orlanskiS.ckptA.001.008.data
(PID.TID 0000.0001)  MDS_READ_SEC_XZ: opening file: pickup_orlanskiS.ckptA.002.008.data
(PID.TID 0000.0001)  MDS_READ_SEC_XZ: opening file: pickup_orlanskiS.ckptA.003.008.data
(PID.TID 0000.0001)  MDS_READ_SEC_XZ: opening file: pickup_orlanskiS.ckptA.004.008.data
(PID.TID 0000.0001)  MDS_READ_SEC_XZ: opening file: pickup_orlanskiS.ckptA.005.008.data
(PID.TID 0000.0001)  MDS_READ_SEC_XZ: opening file: pickup_orlanskiS.ckptA.006.008.data
(PID.TID 0000.0001)  MDS_READ_SEC_XZ: opening file: pickup_orlanskiS.ckptA.007.008.data
(PID.TID 0000.0001)  MDS_READ_SEC_XZ: opening file: pickup_orlanskiS.ckptA.008.008.data
(PID.TID 0000.0001)  MDS_READ_SEC_XZ: opening file: pickup_orlanskiS.ckptA.009.008.data
(PID.TID 0000.0001)  MDS_READ_SEC_XZ: opening file: pickup_orlanskiS.ckptA.010.008.data
(PID.TID 0000.0001)  MDS_READ_SEC_XZ: opening file: pickup_orlanskiS.ckptA.011.008.data
(PID.TID 0000.0001)  MDS_READ_SEC_XZ: opening file: pickup_orlanskiS.ckptA.012.008.data
(PID.TID 0000.0001)  MDS_READ_SEC_XZ: opening file: pickup_orlanskiS.ckptA.013.008.data
(PID.TID 0000.0001)  MDS_READ_SEC_XZ: opening file: pickup_orlanskiS.ckptA.014.008.data
(PID.TID 0000.0001)  MDS_READ_SEC_XZ: opening file: pickup_orlanskiS.ckptA.015.008.data
(PID.TID 0000.0001)  MDS_READ_SEC_XZ: opening file: pickup_orlanskiS.ckptA.001.009.data
(PID.TID 0000.0001)  MDS_READ_SEC_XZ: opening file: pickup_orlanskiS.ckptA.002.009.data
(PID.TID 0000.0001)  MDS_READ_SEC_XZ: opening file: pickup_orlanskiS.ckptA.003.009.data
(PID.TID 0000.0001)  MDS_READ_SEC_XZ: opening file: pickup_orlanskiS.ckptA.004.009.data
(PID.TID 0000.0001)  MDS_READ_SEC_XZ: opening file: pickup_orlanskiS.ckptA.005.009.data
(PID.TID 0000.0001)  MDS_READ_SEC_XZ: opening file: pickup_orlanskiS.ckptA.006.009.data
(PID.TID 0000.0001)  MDS_READ_SEC_XZ: opening file: pickup_orlanskiS.ckptA.007.009.data
(PID.TID 0000.0001)  MDS_READ_SEC_XZ: opening file: pickup_orlanskiS.ckptA.008.009.data
(PID.TID 0000.0001)  MDS_READ_SEC_XZ: opening file: pickup_orlanskiS.ckptA.009.009.data
(PID.TID 0000.0001)  MDS_READ_SEC_XZ: opening file: pickup_orlanskiS.ckptA.010.009.data
(PID.TID 0000.0001)  MDS_READ_SEC_XZ: opening file: pickup_orlanskiS.ckptA.011.009.data
(PID.TID 0000.0001)  MDS_READ_SEC_XZ: opening file: pickup_orlanskiS.ckptA.012.009.data
(PID.TID 0000.0001)  MDS_READ_SEC_XZ: opening file: pickup_orlanskiS.ckptA.013.009.data
(PID.TID 0000.0001)  MDS_READ_SEC_XZ: opening file: pickup_orlanskiS.ckptA.014.009.data
(PID.TID 0000.0001)  MDS_READ_SEC_XZ: opening file: pickup_orlanskiS.ckptA.015.009.data
(PID.TID 0000.0001)  MDS_READ_SEC_XZ: opening file: pickup_orlanskiS.ckptA.001.010.data
(PID.TID 0000.0001)  MDS_READ_SEC_XZ: opening file: pickup_orlanskiS.ckptA.002.010.data
(PID.TID 0000.0001)  MDS_READ_SEC_XZ: opening file: pickup_orlanskiS.ckptA.003.010.data
(PID.TID 0000.0001)  MDS_READ_SEC_XZ: opening file: pickup_orlanskiS.ckptA.004.010.data
(PID.TID 0000.0001)  MDS_READ_SEC_XZ: opening file: pickup_orlanskiS.ckptA.005.010.data
(PID.TID 0000.0001)  MDS_READ_SEC_XZ: opening file: pickup_orlanskiS.ckptA.006.010.data
(PID.TID 0000.0001)  MDS_READ_SEC_XZ: opening file: pickup_orlanskiS.ckptA.007.010.data
(PID.TID 0000.0001)  MDS_READ_SEC_XZ: opening file: pickup_orlanskiS.ckptA.008.010.data
(PID.TID 0000.0001)  MDS_READ_SEC_XZ: opening file: pickup_orlanskiS.ckptA.009.010.data
(PID.TID 0000.0001)  MDS_READ_SEC_XZ: opening file: pickup_orlanskiS.ckptA.010.010.data
(PID.TID 0000.0001)  MDS_READ_SEC_XZ: opening file: pickup_orlanskiS.ckptA.011.010.data
(PID.TID 0000.0001)  MDS_READ_SEC_XZ: opening file: pickup_orlanskiS.ckptA.012.010.data
(PID.TID 0000.0001)  MDS_READ_SEC_XZ: opening file: pickup_orlanskiS.ckptA.013.010.data
(PID.TID 0000.0001)  MDS_READ_SEC_XZ: opening file: pickup_orlanskiS.ckptA.014.010.data
(PID.TID 0000.0001)  MDS_READ_SEC_XZ: opening file: pickup_orlanskiS.ckptA.015.010.data
(PID.TID 0000.0001)  MDS_READ_SEC_XZ: opening file: pickup_orlanskiS.ckptA.001.011.data
(PID.TID 0000.0001)  MDS_READ_SEC_XZ: opening file: pickup_orlanskiS.ckptA.002.011.data
(PID.TID 0000.0001)  MDS_READ_SEC_XZ: opening file: pickup_orlanskiS.ckptA.003.011.data
(PID.TID 0000.0001)  MDS_READ_SEC_XZ: opening file: pickup_orlanskiS.ckptA.004.011.data
(PID.TID 0000.0001)  MDS_READ_SEC_XZ: opening file: pickup_orlanskiS.ckptA.005.011.data
(PID.TID 0000.0001)  MDS_READ_SEC_XZ: opening file: pickup_orlanskiS.ckptA.006.011.data
(PID.TID 0000.0001)  MDS_READ_SEC_XZ: opening file: pickup_orlanskiS.ckptA.007.011.data
(PID.TID 0000.0001)  MDS_READ_SEC_XZ: opening file: pickup_orlanskiS.ckptA.008.011.data
(PID.TID 0000.0001)  MDS_READ_SEC_XZ: opening file: pickup_orlanskiS.ckptA.009.011.data
(PID.TID 0000.0001)  MDS_READ_SEC_XZ: opening file: pickup_orlanskiS.ckptA.010.011.data
(PID.TID 0000.0001)  MDS_READ_SEC_XZ: opening file: pickup_orlanskiS.ckptA.011.011.data
(PID.TID 0000.0001)  MDS_READ_SEC_XZ: opening file: pickup_orlanskiS.ckptA.012.011.data
(PID.TID 0000.0001)  MDS_READ_SEC_XZ: opening file: pickup_orlanskiS.ckptA.013.011.data
(PID.TID 0000.0001)  MDS_READ_SEC_XZ: opening file: pickup_orlanskiS.ckptA.014.011.data
(PID.TID 0000.0001)  MDS_READ_SEC_XZ: opening file: pickup_orlanskiS.ckptA.015.011.data
(PID.TID 0000.0001)  MDS_READ_SEC_XZ: opening file: pickup_orlanskiS.ckptA.001.012.data
(PID.TID 0000.0001)  MDS_READ_SEC_XZ: opening file: pickup_orlanskiS.ckptA.002.012.data
(PID.TID 0000.0001)  MDS_READ_SEC_XZ: opening file: pickup_orlanskiS.ckptA.003.012.data
(PID.TID 0000.0001)  MDS_READ_SEC_XZ: opening file: pickup_orlanskiS.ckptA.004.012.data
(PID.TID 0000.0001)  MDS_READ_SEC_XZ: opening file: pickup_orlanskiS.ckptA.005.012.data
(PID.TID 0000.0001)  MDS_READ_SEC_XZ: opening file: pickup_orlanskiS.ckptA.006.012.data
(PID.TID 0000.0001)  MDS_READ_SEC_XZ: opening file: pickup_orlanskiS.ckptA.007.012.data
(PID.TID 0000.0001)  MDS_READ_SEC_XZ: opening file: pickup_orlanskiS.ckptA.008.012.data
(PID.TID 0000.0001)  MDS_READ_SEC_XZ: opening file: pickup_orlanskiS.ckptA.009.012.data
(PID.TID 0000.0001)  MDS_READ_SEC_XZ: opening file: pickup_orlanskiS.ckptA.010.012.data
(PID.TID 0000.0001)  MDS_READ_SEC_XZ: opening file: pickup_orlanskiS.ckptA.011.012.data
(PID.TID 0000.0001)  MDS_READ_SEC_XZ: opening file: pickup_orlanskiS.ckptA.012.012.data
(PID.TID 0000.0001)  MDS_READ_SEC_XZ: opening file: pickup_orlanskiS.ckptA.013.012.data
(PID.TID 0000.0001)  MDS_READ_SEC_XZ: opening file: pickup_orlanskiS.ckptA.014.012.data
(PID.TID 0000.0001)  MDS_READ_SEC_XZ: opening file: pickup_orlanskiS.ckptA.015.012.data
(PID.TID 0000.0001)  MDS_READ_SEC_XZ: opening file: pickup_orlanskiS.ckptA.001.013.data
(PID.TID 0000.0001)  MDS_READ_SEC_XZ: opening file: pickup_orlanskiS.ckptA.002.013.data
(PID.TID 0000.0001)  MDS_READ_SEC_XZ: opening file: pickup_orlanskiS.ckptA.003.013.data
(PID.TID 0000.0001)  MDS_READ_SEC_XZ: opening file: pickup_orlanskiS.ckptA.004.013.data
(PID.TID 0000.0001)  MDS_READ_SEC_XZ: opening file: pickup_orlanskiS.ckptA.005.013.data
(PID.TID 0000.0001)  MDS_READ_SEC_XZ: opening file: pickup_orlanskiS.ckptA.006.013.data
(PID.TID 0000.0001)  MDS_READ_SEC_XZ: opening file: pickup_orlanskiS.ckptA.007.013.data
(PID.TID 0000.0001)  MDS_READ_SEC_XZ: opening file: pickup_orlanskiS.ckptA.008.013.data
(PID.TID 0000.0001)  MDS_READ_SEC_XZ: opening file: pickup_orlanskiS.ckptA.009.013.data
(PID.TID 0000.0001)  MDS_READ_SEC_XZ: opening file: pickup_orlanskiS.ckptA.010.013.data
(PID.TID 0000.0001)  MDS_READ_SEC_XZ: opening file: pickup_orlanskiS.ckptA.011.013.data
(PID.TID 0000.0001)  MDS_READ_SEC_XZ: opening file: pickup_orlanskiS.ckptA.012.013.data
(PID.TID 0000.0001)  MDS_READ_SEC_XZ: opening file: pickup_orlanskiS.ckptA.013.013.data
(PID.TID 0000.0001)  MDS_READ_SEC_XZ: opening file: pickup_orlanskiS.ckptA.014.013.data
(PID.TID 0000.0001)  MDS_READ_SEC_XZ: opening file: pickup_orlanskiS.ckptA.015.013.data
(PID.TID 0000.0001)  MDS_READ_SEC_XZ: opening file: pickup_orlanskiS.ckptA.001.014.data
(PID.TID 0000.0001)  MDS_READ_SEC_XZ: opening file: pickup_orlanskiS.ckptA.002.014.data
(PID.TID 0000.0001)  MDS_READ_SEC_XZ: opening file: pickup_orlanskiS.ckptA.003.014.data
(PID.TID 0000.0001)  MDS_READ_SEC_XZ: opening file: pickup_orlanskiS.ckptA.004.014.data
(PID.TID 0000.0001)  MDS_READ_SEC_XZ: opening file: pickup_orlanskiS.ckptA.005.014.data
(PID.TID 0000.0001)  MDS_READ_SEC_XZ: opening file: pickup_orlanskiS.ckptA.006.014.data
(PID.TID 0000.0001)  MDS_READ_SEC_XZ: opening file: pickup_orlanskiS.ckptA.007.014.data
(PID.TID 0000.0001)  MDS_READ_SEC_XZ: opening file: pickup_orlanskiS.ckptA.008.014.data
(PID.TID 0000.0001)  MDS_READ_SEC_XZ: opening file: pickup_orlanskiS.ckptA.009.014.data
(PID.TID 0000.0001)  MDS_READ_SEC_XZ: opening file: pickup_orlanskiS.ckptA.010.014.data
(PID.TID 0000.0001)  MDS_READ_SEC_XZ: opening file: pickup_orlanskiS.ckptA.011.014.data
(PID.TID 0000.0001)  MDS_READ_SEC_XZ: opening file: pickup_orlanskiS.ckptA.012.014.data
(PID.TID 0000.0001)  MDS_READ_SEC_XZ: opening file: pickup_orlanskiS.ckptA.013.014.data
(PID.TID 0000.0001)  MDS_READ_SEC_XZ: opening file: pickup_orlanskiS.ckptA.014.014.data
(PID.TID 0000.0001)  MDS_READ_SEC_XZ: opening file: pickup_orlanskiS.ckptA.015.014.data
(PID.TID 0000.0001)  MDS_READ_SEC_XZ: opening file: pickup_orlanskiS.ckptA.001.015.data
(PID.TID 0000.0001)  MDS_READ_SEC_XZ: opening file: pickup_orlanskiS.ckptA.002.015.data
(PID.TID 0000.0001)  MDS_READ_SEC_XZ: opening file: pickup_orlanskiS.ckptA.003.015.data
(PID.TID 0000.0001)  MDS_READ_SEC_XZ: opening file: pickup_orlanskiS.ckptA.004.015.data
(PID.TID 0000.0001)  MDS_READ_SEC_XZ: opening file: pickup_orlanskiS.ckptA.005.015.data
(PID.TID 0000.0001)  MDS_READ_SEC_XZ: opening file: pickup_orlanskiS.ckptA.006.015.data
(PID.TID 0000.0001)  MDS_READ_SEC_XZ: opening file: pickup_orlanskiS.ckptA.007.015.data
(PID.TID 0000.0001)  MDS_READ_SEC_XZ: opening file: pickup_orlanskiS.ckptA.008.015.data
(PID.TID 0000.0001)  MDS_READ_SEC_XZ: opening file: pickup_orlanskiS.ckptA.009.015.data
(PID.TID 0000.0001)  MDS_READ_SEC_XZ: opening file: pickup_orlanskiS.ckptA.010.015.data
(PID.TID 0000.0001)  MDS_READ_SEC_XZ: opening file: pickup_orlanskiS.ckptA.011.015.data
(PID.TID 0000.0001)  MDS_READ_SEC_XZ: opening file: pickup_orlanskiS.ckptA.012.015.data
(PID.TID 0000.0001)  MDS_READ_SEC_XZ: opening file: pickup_orlanskiS.ckptA.013.015.data
(PID.TID 0000.0001)  MDS_READ_SEC_XZ: opening file: pickup_orlanskiS.ckptA.014.015.data
(PID.TID 0000.0001)  MDS_READ_SEC_XZ: opening file: pickup_orlanskiS.ckptA.015.015.data
(PID.TID 0000.0001)  MDS_READ_SEC_XZ: opening file: pickup_orlanskiS.ckptA.001.001.data
(PID.TID 0000.0001)  MDS_READ_SEC_XZ: opening file: pickup_orlanskiS.ckptA.002.001.data
(PID.TID 0000.0001)  MDS_READ_SEC_XZ: opening file: pickup_orlanskiS.ckptA.003.001.data
(PID.TID 0000.0001)  MDS_READ_SEC_XZ: opening file: pickup_orlanskiS.ckptA.004.001.data
(PID.TID 0000.0001)  MDS_READ_SEC_XZ: opening file: pickup_orlanskiS.ckptA.005.001.data
(PID.TID 0000.0001)  MDS_READ_SEC_XZ: opening file: pickup_orlanskiS.ckptA.006.001.data
(PID.TID 0000.0001)  MDS_READ_SEC_XZ: opening file: pickup_orlanskiS.ckptA.007.001.data
(PID.TID 0000.0001)  MDS_READ_SEC_XZ: opening file: pickup_orlanskiS.ckptA.008.001.data
(PID.TID 0000.0001)  MDS_READ_SEC_XZ: opening file: pickup_orlanskiS.ckptA.009.001.data
(PID.TID 0000.0001)  MDS_READ_SEC_XZ: opening file: pickup_orlanskiS.ckptA.010.001.data
(PID.TID 0000.0001)  MDS_READ_SEC_XZ: opening file: pickup_orlanskiS.ckptA.011.001.data
(PID.TID 0000.0001)  MDS_READ_SEC_XZ: opening file: pickup_orlanskiS.ckptA.012.001.data
(PID.TID 0000.0001)  MDS_READ_SEC_XZ: opening file: pickup_orlanskiS.ckptA.013.001.data
(PID.TID 0000.0001)  MDS_READ_SEC_XZ: opening file: pickup_orlanskiS.ckptA.014.001.data
(PID.TID 0000.0001)  MDS_READ_SEC_XZ: opening file: pickup_orlanskiS.ckptA.015.001.data
(PID.TID 0000.0001)  MDS_READ_SEC_XZ: opening file: pickup_orlanskiS.ckptA.001.002.data
(PID.TID 0000.0001)  MDS_READ_SEC_XZ: opening file: pickup_orlanskiS.ckptA.002.002.data
(PID.TID 0000.0001)  MDS_READ_SEC_XZ: opening file: pickup_orlanskiS.ckptA.003.002.data
(PID.TID 0000.0001)  MDS_READ_SEC_XZ: opening file: pickup_orlanskiS.ckptA.004.002.data
(PID.TID 0000.0001)  MDS_READ_SEC_XZ: opening file: pickup_orlanskiS.ckptA.005.002.data
(PID.TID 0000.0001)  MDS_READ_SEC_XZ: opening file: pickup_orlanskiS.ckptA.006.002.data
(PID.TID 0000.0001)  MDS_READ_SEC_XZ: opening file: pickup_orlanskiS.ckptA.007.002.data
(PID.TID 0000.0001)  MDS_READ_SEC_XZ: opening file: pickup_orlanskiS.ckptA.008.002.data
(PID.TID 0000.0001)  MDS_READ_SEC_XZ: opening file: pickup_orlanskiS.ckptA.009.002.data
(PID.TID 0000.0001)  MDS_READ_SEC_XZ: opening file: pickup_orlanskiS.ckptA.010.002.data
(PID.TID 0000.0001)  MDS_READ_SEC_XZ: opening file: pickup_orlanskiS.ckptA.011.002.data
(PID.TID 0000.0001)  MDS_READ_SEC_XZ: opening file: pickup_orlanskiS.ckptA.012.002.data
(PID.TID 0000.0001)  MDS_READ_SEC_XZ: opening file: pickup_orlanskiS.ckptA.013.002.data
(PID.TID 0000.0001)  MDS_READ_SEC_XZ: opening file: pickup_orlanskiS.ckptA.014.002.data
(PID.TID 0000.0001)  MDS_READ_SEC_XZ: opening file: pickup_orlanskiS.ckptA.015.002.data
(PID.TID 0000.0001)  MDS_READ_SEC_XZ: opening file: pickup_orlanskiS.ckptA.001.003.data
(PID.TID 0000.0001)  MDS_READ_SEC_XZ: opening file: pickup_orlanskiS.ckptA.002.003.data
(PID.TID 0000.0001)  MDS_READ_SEC_XZ: opening file: pickup_orlanskiS.ckptA.003.003.data
(PID.TID 0000.0001)  MDS_READ_SEC_XZ: opening file: pickup_orlanskiS.ckptA.004.003.data
(PID.TID 0000.0001)  MDS_READ_SEC_XZ: opening file: pickup_orlanskiS.ckptA.005.003.data
(PID.TID 0000.0001)  MDS_READ_SEC_XZ: opening file: pickup_orlanskiS.ckptA.006.003.data
(PID.TID 0000.0001)  MDS_READ_SEC_XZ: opening file: pickup_orlanskiS.ckptA.007.003.data
(PID.TID 0000.0001)  MDS_READ_SEC_XZ: opening file: pickup_orlanskiS.ckptA.008.003.data
(PID.TID 0000.0001)  MDS_READ_SEC_XZ: opening file: pickup_orlanskiS.ckptA.009.003.data
(PID.TID 0000.0001)  MDS_READ_SEC_XZ: opening file: pickup_orlanskiS.ckptA.010.003.data
(PID.TID 0000.0001)  MDS_READ_SEC_XZ: opening file: pickup_orlanskiS.ckptA.011.003.data
(PID.TID 0000.0001)  MDS_READ_SEC_XZ: opening file: pickup_orlanskiS.ckptA.012.003.data
(PID.TID 0000.0001)  MDS_READ_SEC_XZ: opening file: pickup_orlanskiS.ckptA.013.003.data
(PID.TID 0000.0001)  MDS_READ_SEC_XZ: opening file: pickup_orlanskiS.ckptA.014.003.data
(PID.TID 0000.0001)  MDS_READ_SEC_XZ: opening file: pickup_orlanskiS.ckptA.015.003.data
(PID.TID 0000.0001)  MDS_READ_SEC_XZ: opening file: pickup_orlanskiS.ckptA.001.004.data
(PID.TID 0000.0001)  MDS_READ_SEC_XZ: opening file: pickup_orlanskiS.ckptA.002.004.data
(PID.TID 0000.0001)  MDS_READ_SEC_XZ: opening file: pickup_orlanskiS.ckptA.003.004.data
(PID.TID 0000.0001)  MDS_READ_SEC_XZ: opening file: pickup_orlanskiS.ckptA.004.004.data
(PID.TID 0000.0001)  MDS_READ_SEC_XZ: opening file: pickup_orlanskiS.ckptA.005.004.data
(PID.TID 0000.0001)  MDS_READ_SEC_XZ: opening file: pickup_orlanskiS.ckptA.006.004.data
(PID.TID 0000.0001)  MDS_READ_SEC_XZ: opening file: pickup_orlanskiS.ckptA.007.004.data
(PID.TID 0000.0001)  MDS_READ_SEC_XZ: opening file: pickup_orlanskiS.ckptA.008.004.data
(PID.TID 0000.0001)  MDS_READ_SEC_XZ: opening file: pickup_orlanskiS.ckptA.009.004.data
(PID.TID 0000.0001)  MDS_READ_SEC_XZ: opening file: pickup_orlanskiS.ckptA.010.004.data
(PID.TID 0000.0001)  MDS_READ_SEC_XZ: opening file: pickup_orlanskiS.ckptA.011.004.data
(PID.TID 0000.0001)  MDS_READ_SEC_XZ: opening file: pickup_orlanskiS.ckptA.012.004.data
(PID.TID 0000.0001)  MDS_READ_SEC_XZ: opening file: pickup_orlanskiS.ckptA.013.004.data
(PID.TID 0000.0001)  MDS_READ_SEC_XZ: opening file: pickup_orlanskiS.ckptA.014.004.data
(PID.TID 0000.0001)  MDS_READ_SEC_XZ: opening file: pickup_orlanskiS.ckptA.015.004.data
(PID.TID 0000.0001)  MDS_READ_SEC_XZ: opening file: pickup_orlanskiS.ckptA.001.005.data
(PID.TID 0000.0001)  MDS_READ_SEC_XZ: opening file: pickup_orlanskiS.ckptA.002.005.data
(PID.TID 0000.0001)  MDS_READ_SEC_XZ: opening file: pickup_orlanskiS.ckptA.003.005.data
(PID.TID 0000.0001)  MDS_READ_SEC_XZ: opening file: pickup_orlanskiS.ckptA.004.005.data
(PID.TID 0000.0001)  MDS_READ_SEC_XZ: opening file: pickup_orlanskiS.ckptA.005.005.data
(PID.TID 0000.0001)  MDS_READ_SEC_XZ: opening file: pickup_orlanskiS.ckptA.006.005.data
(PID.TID 0000.0001)  MDS_READ_SEC_XZ: opening file: pickup_orlanskiS.ckptA.007.005.data
(PID.TID 0000.0001)  MDS_READ_SEC_XZ: opening file: pickup_orlanskiS.ckptA.008.005.data
(PID.TID 0000.0001)  MDS_READ_SEC_XZ: opening file: pickup_orlanskiS.ckptA.009.005.data
(PID.TID 0000.0001)  MDS_READ_SEC_XZ: opening file: pickup_orlanskiS.ckptA.010.005.data
(PID.TID 0000.0001)  MDS_READ_SEC_XZ: opening file: pickup_orlanskiS.ckptA.011.005.data
(PID.TID 0000.0001)  MDS_READ_SEC_XZ: opening file: pickup_orlanskiS.ckptA.012.005.data
(PID.TID 0000.0001)  MDS_READ_SEC_XZ: opening file: pickup_orlanskiS.ckptA.013.005.data
(PID.TID 0000.0001)  MDS_READ_SEC_XZ: opening file: pickup_orlanskiS.ckptA.014.005.data
(PID.TID 0000.0001)  MDS_READ_SEC_XZ: opening file: pickup_orlanskiS.ckptA.015.005.data
(PID.TID 0000.0001)  MDS_READ_SEC_XZ: opening file: pickup_orlanskiS.ckptA.001.006.data
(PID.TID 0000.0001)  MDS_READ_SEC_XZ: opening file: pickup_orlanskiS.ckptA.002.006.data
(PID.TID 0000.0001)  MDS_READ_SEC_XZ: opening file: pickup_orlanskiS.ckptA.003.006.data
(PID.TID 0000.0001)  MDS_READ_SEC_XZ: opening file: pickup_orlanskiS.ckptA.004.006.data
(PID.TID 0000.0001)  MDS_READ_SEC_XZ: opening file: pickup_orlanskiS.ckptA.005.006.data
(PID.TID 0000.0001)  MDS_READ_SEC_XZ: opening file: pickup_orlanskiS.ckptA.006.006.data
(PID.TID 0000.0001)  MDS_READ_SEC_XZ: opening file: pickup_orlanskiS.ckptA.007.006.data
(PID.TID 0000.0001)  MDS_READ_SEC_XZ: opening file: pickup_orlanskiS.ckptA.008.006.data
(PID.TID 0000.0001)  MDS_READ_SEC_XZ: opening file: pickup_orlanskiS.ckptA.009.006.data
(PID.TID 0000.0001)  MDS_READ_SEC_XZ: opening file: pickup_orlanskiS.ckptA.010.006.data
(PID.TID 0000.0001)  MDS_READ_SEC_XZ: opening file: pickup_orlanskiS.ckptA.011.006.data
(PID.TID 0000.0001)  MDS_READ_SEC_XZ: opening file: pickup_orlanskiS.ckptA.012.006.data
(PID.TID 0000.0001)  MDS_READ_SEC_XZ: opening file: pickup_orlanskiS.ckptA.013.006.data
(PID.TID 0000.0001)  MDS_READ_SEC_XZ: opening file: pickup_orlanskiS.ckptA.014.006.data
(PID.TID 0000.0001)  MDS_READ_SEC_XZ: opening file: pickup_orlanskiS.ckptA.015.006.data
(PID.TID 0000.0001)  MDS_READ_SEC_XZ: opening file: pickup_orlanskiS.ckptA.001.007.data
(PID.TID 0000.0001)  MDS_READ_SEC_XZ: opening file: pickup_orlanskiS.ckptA.002.007.data
(PID.TID 0000.0001)  MDS_READ_SEC_XZ: opening file: pickup_orlanskiS.ckptA.003.007.data
(PID.TID 0000.0001)  MDS_READ_SEC_XZ: opening file: pickup_orlanskiS.ckptA.004.007.data
(PID.TID 0000.0001)  MDS_READ_SEC_XZ: opening file: pickup_orlanskiS.ckptA.005.007.data
(PID.TID 0000.0001)  MDS_READ_SEC_XZ: opening file: pickup_orlanskiS.ckptA.006.007.data
(PID.TID 0000.0001)  MDS_READ_SEC_XZ: opening file: pickup_orlanskiS.ckptA.007.007.data
(PID.TID 0000.0001)  MDS_READ_SEC_XZ: opening file: pickup_orlanskiS.ckptA.008.007.data
(PID.TID 0000.0001)  MDS_READ_SEC_XZ: opening file: pickup_orlanskiS.ckptA.009.007.data
(PID.TID 0000.0001)  MDS_READ_SEC_XZ: opening file: pickup_orlanskiS.ckptA.010.007.data
(PID.TID 0000.0001)  MDS_READ_SEC_XZ: opening file: pickup_orlanskiS.ckptA.011.007.data
(PID.TID 0000.0001)  MDS_READ_SEC_XZ: opening file: pickup_orlanskiS.ckptA.012.007.data
(PID.TID 0000.0001)  MDS_READ_SEC_XZ: opening file: pickup_orlanskiS.ckptA.013.007.data
(PID.TID 0000.0001)  MDS_READ_SEC_XZ: opening file: pickup_orlanskiS.ckptA.014.007.data
(PID.TID 0000.0001)  MDS_READ_SEC_XZ: opening file: pickup_orlanskiS.ckptA.015.007.data
(PID.TID 0000.0001)  MDS_READ_SEC_XZ: opening file: pickup_orlanskiS.ckptA.001.008.data
(PID.TID 0000.0001)  MDS_READ_SEC_XZ: opening file: pickup_orlanskiS.ckptA.002.008.data
(PID.TID 0000.0001)  MDS_READ_SEC_XZ: opening file: pickup_orlanskiS.ckptA.003.008.data
(PID.TID 0000.0001)  MDS_READ_SEC_XZ: opening file: pickup_orlanskiS.ckptA.004.008.data
(PID.TID 0000.0001)  MDS_READ_SEC_XZ: opening file: pickup_orlanskiS.ckptA.005.008.data
(PID.TID 0000.0001)  MDS_READ_SEC_XZ: opening file: pickup_orlanskiS.ckptA.006.008.data
(PID.TID 0000.0001)  MDS_READ_SEC_XZ: opening file: pickup_orlanskiS.ckptA.007.008.data
(PID.TID 0000.0001)  MDS_READ_SEC_XZ: opening file: pickup_orlanskiS.ckptA.008.008.data
(PID.TID 0000.0001)  MDS_READ_SEC_XZ: opening file: pickup_orlanskiS.ckptA.009.008.data
(PID.TID 0000.0001)  MDS_READ_SEC_XZ: opening file: pickup_orlanskiS.ckptA.010.008.data
(PID.TID 0000.0001)  MDS_READ_SEC_XZ: opening file: pickup_orlanskiS.ckptA.011.008.data
(PID.TID 0000.0001)  MDS_READ_SEC_XZ: opening file: pickup_orlanskiS.ckptA.012.008.data
(PID.TID 0000.0001)  MDS_READ_SEC_XZ: opening file: pickup_orlanskiS.ckptA.013.008.data
(PID.TID 0000.0001)  MDS_READ_SEC_XZ: opening file: pickup_orlanskiS.ckptA.014.008.data
(PID.TID 0000.0001)  MDS_READ_SEC_XZ: opening file: pickup_orlanskiS.ckptA.015.008.data
(PID.TID 0000.0001)  MDS_READ_SEC_XZ: opening file: pickup_orlanskiS.ckptA.001.009.data
(PID.TID 0000.0001)  MDS_READ_SEC_XZ: opening file: pickup_orlanskiS.ckptA.002.009.data
(PID.TID 0000.0001)  MDS_READ_SEC_XZ: opening file: pickup_orlanskiS.ckptA.003.009.data
(PID.TID 0000.0001)  MDS_READ_SEC_XZ: opening file: pickup_orlanskiS.ckptA.004.009.data
(PID.TID 0000.0001)  MDS_READ_SEC_XZ: opening file: pickup_orlanskiS.ckptA.005.009.data
(PID.TID 0000.0001)  MDS_READ_SEC_XZ: opening file: pickup_orlanskiS.ckptA.006.009.data
(PID.TID 0000.0001)  MDS_READ_SEC_XZ: opening file: pickup_orlanskiS.ckptA.007.009.data
(PID.TID 0000.0001)  MDS_READ_SEC_XZ: opening file: pickup_orlanskiS.ckptA.008.009.data
(PID.TID 0000.0001)  MDS_READ_SEC_XZ: opening file: pickup_orlanskiS.ckptA.009.009.data
(PID.TID 0000.0001)  MDS_READ_SEC_XZ: opening file: pickup_orlanskiS.ckptA.010.009.data
(PID.TID 0000.0001)  MDS_READ_SEC_XZ: opening file: pickup_orlanskiS.ckptA.011.009.data
(PID.TID 0000.0001)  MDS_READ_SEC_XZ: opening file: pickup_orlanskiS.ckptA.012.009.data
(PID.TID 0000.0001)  MDS_READ_SEC_XZ: opening file: pickup_orlanskiS.ckptA.013.009.data
(PID.TID 0000.0001)  MDS_READ_SEC_XZ: opening file: pickup_orlanskiS.ckptA.014.009.data
(PID.TID 0000.0001)  MDS_READ_SEC_XZ: opening file: pickup_orlanskiS.ckptA.015.009.data
(PID.TID 0000.0001)  MDS_READ_SEC_XZ: opening file: pickup_orlanskiS.ckptA.001.010.data
(PID.TID 0000.0001)  MDS_READ_SEC_XZ: opening file: pickup_orlanskiS.ckptA.002.010.data
(PID.TID 0000.0001)  MDS_READ_SEC_XZ: opening file: pickup_orlanskiS.ckptA.003.010.data
(PID.TID 0000.0001)  MDS_READ_SEC_XZ: opening file: pickup_orlanskiS.ckptA.004.010.data
(PID.TID 0000.0001)  MDS_READ_SEC_XZ: opening file: pickup_orlanskiS.ckptA.005.010.data
(PID.TID 0000.0001)  MDS_READ_SEC_XZ: opening file: pickup_orlanskiS.ckptA.006.010.data
(PID.TID 0000.0001)  MDS_READ_SEC_XZ: opening file: pickup_orlanskiS.ckptA.007.010.data
(PID.TID 0000.0001)  MDS_READ_SEC_XZ: opening file: pickup_orlanskiS.ckptA.008.010.data
(PID.TID 0000.0001)  MDS_READ_SEC_XZ: opening file: pickup_orlanskiS.ckptA.009.010.data
(PID.TID 0000.0001)  MDS_READ_SEC_XZ: opening file: pickup_orlanskiS.ckptA.010.010.data
(PID.TID 0000.0001)  MDS_READ_SEC_XZ: opening file: pickup_orlanskiS.ckptA.011.010.data
(PID.TID 0000.0001)  MDS_READ_SEC_XZ: opening file: pickup_orlanskiS.ckptA.012.010.data
(PID.TID 0000.0001)  MDS_READ_SEC_XZ: opening file: pickup_orlanskiS.ckptA.013.010.data
(PID.TID 0000.0001)  MDS_READ_SEC_XZ: opening file: pickup_orlanskiS.ckptA.014.010.data
(PID.TID 0000.0001)  MDS_READ_SEC_XZ: opening file: pickup_orlanskiS.ckptA.015.010.data
(PID.TID 0000.0001)  MDS_READ_SEC_XZ: opening file: pickup_orlanskiS.ckptA.001.011.data
(PID.TID 0000.0001)  MDS_READ_SEC_XZ: opening file: pickup_orlanskiS.ckptA.002.011.data
(PID.TID 0000.0001)  MDS_READ_SEC_XZ: opening file: pickup_orlanskiS.ckptA.003.011.data
(PID.TID 0000.0001)  MDS_READ_SEC_XZ: opening file: pickup_orlanskiS.ckptA.004.011.data
(PID.TID 0000.0001)  MDS_READ_SEC_XZ: opening file: pickup_orlanskiS.ckptA.005.011.data
(PID.TID 0000.0001)  MDS_READ_SEC_XZ: opening file: pickup_orlanskiS.ckptA.006.011.data
(PID.TID 0000.0001)  MDS_READ_SEC_XZ: opening file: pickup_orlanskiS.ckptA.007.011.data
(PID.TID 0000.0001)  MDS_READ_SEC_XZ: opening file: pickup_orlanskiS.ckptA.008.011.data
(PID.TID 0000.0001)  MDS_READ_SEC_XZ: opening file: pickup_orlanskiS.ckptA.009.011.data
(PID.TID 0000.0001)  MDS_READ_SEC_XZ: opening file: pickup_orlanskiS.ckptA.010.011.data
(PID.TID 0000.0001)  MDS_READ_SEC_XZ: opening file: pickup_orlanskiS.ckptA.011.011.data
(PID.TID 0000.0001)  MDS_READ_SEC_XZ: opening file: pickup_orlanskiS.ckptA.012.011.data
(PID.TID 0000.0001)  MDS_READ_SEC_XZ: opening file: pickup_orlanskiS.ckptA.013.011.data
(PID.TID 0000.0001)  MDS_READ_SEC_XZ: opening file: pickup_orlanskiS.ckptA.014.011.data
(PID.TID 0000.0001)  MDS_READ_SEC_XZ: opening file: pickup_orlanskiS.ckptA.015.011.data
(PID.TID 0000.0001)  MDS_READ_SEC_XZ: opening file: pickup_orlanskiS.ckptA.001.012.data
(PID.TID 0000.0001)  MDS_READ_SEC_XZ: opening file: pickup_orlanskiS.ckptA.002.012.data
(PID.TID 0000.0001)  MDS_READ_SEC_XZ: opening file: pickup_orlanskiS.ckptA.003.012.data
(PID.TID 0000.0001)  MDS_READ_SEC_XZ: opening file: pickup_orlanskiS.ckptA.004.012.data
(PID.TID 0000.0001)  MDS_READ_SEC_XZ: opening file: pickup_orlanskiS.ckptA.005.012.data
(PID.TID 0000.0001)  MDS_READ_SEC_XZ: opening file: pickup_orlanskiS.ckptA.006.012.data
(PID.TID 0000.0001)  MDS_READ_SEC_XZ: opening file: pickup_orlanskiS.ckptA.007.012.data
(PID.TID 0000.0001)  MDS_READ_SEC_XZ: opening file: pickup_orlanskiS.ckptA.008.012.data
(PID.TID 0000.0001)  MDS_READ_SEC_XZ: opening file: pickup_orlanskiS.ckptA.009.012.data
(PID.TID 0000.0001)  MDS_READ_SEC_XZ: opening file: pickup_orlanskiS.ckptA.010.012.data
(PID.TID 0000.0001)  MDS_READ_SEC_XZ: opening file: pickup_orlanskiS.ckptA.011.012.data
(PID.TID 0000.0001)  MDS_READ_SEC_XZ: opening file: pickup_orlanskiS.ckptA.012.012.data
(PID.TID 0000.0001)  MDS_READ_SEC_XZ: opening file: pickup_orlanskiS.ckptA.013.012.data
(PID.TID 0000.0001)  MDS_READ_SEC_XZ: opening file: pickup_orlanskiS.ckptA.014.012.data
(PID.TID 0000.0001)  MDS_READ_SEC_XZ: opening file: pickup_orlanskiS.ckptA.015.012.data
(PID.TID 0000.0001)  MDS_READ_SEC_XZ: opening file: pickup_orlanskiS.ckptA.001.013.data
(PID.TID 0000.0001)  MDS_READ_SEC_XZ: opening file: pickup_orlanskiS.ckptA.002.013.data
(PID.TID 0000.0001)  MDS_READ_SEC_XZ: opening file: pickup_orlanskiS.ckptA.003.013.data
(PID.TID 0000.0001)  MDS_READ_SEC_XZ: opening file: pickup_orlanskiS.ckptA.004.013.data
(PID.TID 0000.0001)  MDS_READ_SEC_XZ: opening file: pickup_orlanskiS.ckptA.005.013.data
(PID.TID 0000.0001)  MDS_READ_SEC_XZ: opening file: pickup_orlanskiS.ckptA.006.013.data
(PID.TID 0000.0001)  MDS_READ_SEC_XZ: opening file: pickup_orlanskiS.ckptA.007.013.data
(PID.TID 0000.0001)  MDS_READ_SEC_XZ: opening file: pickup_orlanskiS.ckptA.008.013.data
(PID.TID 0000.0001)  MDS_READ_SEC_XZ: opening file: pickup_orlanskiS.ckptA.009.013.data
(PID.TID 0000.0001)  MDS_READ_SEC_XZ: opening file: pickup_orlanskiS.ckptA.010.013.data
(PID.TID 0000.0001)  MDS_READ_SEC_XZ: opening file: pickup_orlanskiS.ckptA.011.013.data
(PID.TID 0000.0001)  MDS_READ_SEC_XZ: opening file: pickup_orlanskiS.ckptA.012.013.data
(PID.TID 0000.0001)  MDS_READ_SEC_XZ: opening file: pickup_orlanskiS.ckptA.013.013.data
(PID.TID 0000.0001)  MDS_READ_SEC_XZ: opening file: pickup_orlanskiS.ckptA.014.013.data
(PID.TID 0000.0001)  MDS_READ_SEC_XZ: opening file: pickup_orlanskiS.ckptA.015.013.data
(PID.TID 0000.0001)  MDS_READ_SEC_XZ: opening file: pickup_orlanskiS.ckptA.001.014.data
(PID.TID 0000.0001)  MDS_READ_SEC_XZ: opening file: pickup_orlanskiS.ckptA.002.014.data
(PID.TID 0000.0001)  MDS_READ_SEC_XZ: opening file: pickup_orlanskiS.ckptA.003.014.data
(PID.TID 0000.0001)  MDS_READ_SEC_XZ: opening file: pickup_orlanskiS.ckptA.004.014.data
(PID.TID 0000.0001)  MDS_READ_SEC_XZ: opening file: pickup_orlanskiS.ckptA.005.014.data
(PID.TID 0000.0001)  MDS_READ_SEC_XZ: opening file: pickup_orlanskiS.ckptA.006.014.data
(PID.TID 0000.0001)  MDS_READ_SEC_XZ: opening file: pickup_orlanskiS.ckptA.007.014.data
(PID.TID 0000.0001)  MDS_READ_SEC_XZ: opening file: pickup_orlanskiS.ckptA.008.014.data
(PID.TID 0000.0001)  MDS_READ_SEC_XZ: opening file: pickup_orlanskiS.ckptA.009.014.data
(PID.TID 0000.0001)  MDS_READ_SEC_XZ: opening file: pickup_orlanskiS.ckptA.010.014.data
(PID.TID 0000.0001)  MDS_READ_SEC_XZ: opening file: pickup_orlanskiS.ckptA.011.014.data
(PID.TID 0000.0001)  MDS_READ_SEC_XZ: opening file: pickup_orlanskiS.ckptA.012.014.data
(PID.TID 0000.0001)  MDS_READ_SEC_XZ: opening file: pickup_orlanskiS.ckptA.013.014.data
(PID.TID 0000.0001)  MDS_READ_SEC_XZ: opening file: pickup_orlanskiS.ckptA.014.014.data
(PID.TID 0000.0001)  MDS_READ_SEC_XZ: opening file: pickup_orlanskiS.ckptA.015.014.data
(PID.TID 0000.0001)  MDS_READ_SEC_XZ: opening file: pickup_orlanskiS.ckptA.001.015.data
(PID.TID 0000.0001)  MDS_READ_SEC_XZ: opening file: pickup_orlanskiS.ckptA.002.015.data
(PID.TID 0000.0001)  MDS_READ_SEC_XZ: opening file: pickup_orlanskiS.ckptA.003.015.data
(PID.TID 0000.0001)  MDS_READ_SEC_XZ: opening file: pickup_orlanskiS.ckptA.004.015.data
(PID.TID 0000.0001)  MDS_READ_SEC_XZ: opening file: pickup_orlanskiS.ckptA.005.015.data
(PID.TID 0000.0001)  MDS_READ_SEC_XZ: opening file: pickup_orlanskiS.ckptA.006.015.data
(PID.TID 0000.0001)  MDS_READ_SEC_XZ: opening file: pickup_orlanskiS.ckptA.007.015.data
(PID.TID 0000.0001)  MDS_READ_SEC_XZ: opening file: pickup_orlanskiS.ckptA.008.015.data
(PID.TID 0000.0001)  MDS_READ_SEC_XZ: opening file: pickup_orlanskiS.ckptA.009.015.data
(PID.TID 0000.0001)  MDS_READ_SEC_XZ: opening file: pickup_orlanskiS.ckptA.010.015.data
(PID.TID 0000.0001)  MDS_READ_SEC_XZ: opening file: pickup_orlanskiS.ckptA.011.015.data
(PID.TID 0000.0001)  MDS_READ_SEC_XZ: opening file: pickup_orlanskiS.ckptA.012.015.data
(PID.TID 0000.0001)  MDS_READ_SEC_XZ: opening file: pickup_orlanskiS.ckptA.013.015.data
(PID.TID 0000.0001)  MDS_READ_SEC_XZ: opening file: pickup_orlanskiS.ckptA.014.015.data
(PID.TID 0000.0001)  MDS_READ_SEC_XZ: opening file: pickup_orlanskiS.ckptA.015.015.data
(PID.TID 0000.0001)  MDS_READ_SEC_XZ: opening file: pickup_orlanskiS.ckptA.001.001.data
(PID.TID 0000.0001)  MDS_READ_SEC_XZ: opening file: pickup_orlanskiS.ckptA.002.001.data
(PID.TID 0000.0001)  MDS_READ_SEC_XZ: opening file: pickup_orlanskiS.ckptA.003.001.data
(PID.TID 0000.0001)  MDS_READ_SEC_XZ: opening file: pickup_orlanskiS.ckptA.004.001.data
(PID.TID 0000.0001)  MDS_READ_SEC_XZ: opening file: pickup_orlanskiS.ckptA.005.001.data
(PID.TID 0000.0001)  MDS_READ_SEC_XZ: opening file: pickup_orlanskiS.ckptA.006.001.data
(PID.TID 0000.0001)  MDS_READ_SEC_XZ: opening file: pickup_orlanskiS.ckptA.007.001.data
(PID.TID 0000.0001)  MDS_READ_SEC_XZ: opening file: pickup_orlanskiS.ckptA.008.001.data
(PID.TID 0000.0001)  MDS_READ_SEC_XZ: opening file: pickup_orlanskiS.ckptA.009.001.data
(PID.TID 0000.0001)  MDS_READ_SEC_XZ: opening file: pickup_orlanskiS.ckptA.010.001.data
(PID.TID 0000.0001)  MDS_READ_SEC_XZ: opening file: pickup_orlanskiS.ckptA.011.001.data
(PID.TID 0000.0001)  MDS_READ_SEC_XZ: opening file: pickup_orlanskiS.ckptA.012.001.data
(PID.TID 0000.0001)  MDS_READ_SEC_XZ: opening file: pickup_orlanskiS.ckptA.013.001.data
(PID.TID 0000.0001)  MDS_READ_SEC_XZ: opening file: pickup_orlanskiS.ckptA.014.001.data
(PID.TID 0000.0001)  MDS_READ_SEC_XZ: opening file: pickup_orlanskiS.ckptA.015.001.data
(PID.TID 0000.0001)  MDS_READ_SEC_XZ: opening file: pickup_orlanskiS.ckptA.001.002.data
(PID.TID 0000.0001)  MDS_READ_SEC_XZ: opening file: pickup_orlanskiS.ckptA.002.002.data
(PID.TID 0000.0001)  MDS_READ_SEC_XZ: opening file: pickup_orlanskiS.ckptA.003.002.data
(PID.TID 0000.0001)  MDS_READ_SEC_XZ: opening file: pickup_orlanskiS.ckptA.004.002.data
(PID.TID 0000.0001)  MDS_READ_SEC_XZ: opening file: pickup_orlanskiS.ckptA.005.002.data
(PID.TID 0000.0001)  MDS_READ_SEC_XZ: opening file: pickup_orlanskiS.ckptA.006.002.data
(PID.TID 0000.0001)  MDS_READ_SEC_XZ: opening file: pickup_orlanskiS.ckptA.007.002.data
(PID.TID 0000.0001)  MDS_READ_SEC_XZ: opening file: pickup_orlanskiS.ckptA.008.002.data
(PID.TID 0000.0001)  MDS_READ_SEC_XZ: opening file: pickup_orlanskiS.ckptA.009.002.data
(PID.TID 0000.0001)  MDS_READ_SEC_XZ: opening file: pickup_orlanskiS.ckptA.010.002.data
(PID.TID 0000.0001)  MDS_READ_SEC_XZ: opening file: pickup_orlanskiS.ckptA.011.002.data
(PID.TID 0000.0001)  MDS_READ_SEC_XZ: opening file: pickup_orlanskiS.ckptA.012.002.data
(PID.TID 0000.0001)  MDS_READ_SEC_XZ: opening file: pickup_orlanskiS.ckptA.013.002.data
(PID.TID 0000.0001)  MDS_READ_SEC_XZ: opening file: pickup_orlanskiS.ckptA.014.002.data
(PID.TID 0000.0001)  MDS_READ_SEC_XZ: opening file: pickup_orlanskiS.ckptA.015.002.data
(PID.TID 0000.0001)  MDS_READ_SEC_XZ: opening file: pickup_orlanskiS.ckptA.001.003.data
(PID.TID 0000.0001)  MDS_READ_SEC_XZ: opening file: pickup_orlanskiS.ckptA.002.003.data
(PID.TID 0000.0001)  MDS_READ_SEC_XZ: opening file: pickup_orlanskiS.ckptA.003.003.data
(PID.TID 0000.0001)  MDS_READ_SEC_XZ: opening file: pickup_orlanskiS.ckptA.004.003.data
(PID.TID 0000.0001)  MDS_READ_SEC_XZ: opening file: pickup_orlanskiS.ckptA.005.003.data
(PID.TID 0000.0001)  MDS_READ_SEC_XZ: opening file: pickup_orlanskiS.ckptA.006.003.data
(PID.TID 0000.0001)  MDS_READ_SEC_XZ: opening file: pickup_orlanskiS.ckptA.007.003.data
(PID.TID 0000.0001)  MDS_READ_SEC_XZ: opening file: pickup_orlanskiS.ckptA.008.003.data
(PID.TID 0000.0001)  MDS_READ_SEC_XZ: opening file: pickup_orlanskiS.ckptA.009.003.data
(PID.TID 0000.0001)  MDS_READ_SEC_XZ: opening file: pickup_orlanskiS.ckptA.010.003.data
(PID.TID 0000.0001)  MDS_READ_SEC_XZ: opening file: pickup_orlanskiS.ckptA.011.003.data
(PID.TID 0000.0001)  MDS_READ_SEC_XZ: opening file: pickup_orlanskiS.ckptA.012.003.data
(PID.TID 0000.0001)  MDS_READ_SEC_XZ: opening file: pickup_orlanskiS.ckptA.013.003.data
(PID.TID 0000.0001)  MDS_READ_SEC_XZ: opening file: pickup_orlanskiS.ckptA.014.003.data
(PID.TID 0000.0001)  MDS_READ_SEC_XZ: opening file: pickup_orlanskiS.ckptA.015.003.data
(PID.TID 0000.0001)  MDS_READ_SEC_XZ: opening file: pickup_orlanskiS.ckptA.001.004.data
(PID.TID 0000.0001)  MDS_READ_SEC_XZ: opening file: pickup_orlanskiS.ckptA.002.004.data
(PID.TID 0000.0001)  MDS_READ_SEC_XZ: opening file: pickup_orlanskiS.ckptA.003.004.data
(PID.TID 0000.0001)  MDS_READ_SEC_XZ: opening file: pickup_orlanskiS.ckptA.004.004.data
(PID.TID 0000.0001)  MDS_READ_SEC_XZ: opening file: pickup_orlanskiS.ckptA.005.004.data
(PID.TID 0000.0001)  MDS_READ_SEC_XZ: opening file: pickup_orlanskiS.ckptA.006.004.data
(PID.TID 0000.0001)  MDS_READ_SEC_XZ: opening file: pickup_orlanskiS.ckptA.007.004.data
(PID.TID 0000.0001)  MDS_READ_SEC_XZ: opening file: pickup_orlanskiS.ckptA.008.004.data
(PID.TID 0000.0001)  MDS_READ_SEC_XZ: opening file: pickup_orlanskiS.ckptA.009.004.data
(PID.TID 0000.0001)  MDS_READ_SEC_XZ: opening file: pickup_orlanskiS.ckptA.010.004.data
(PID.TID 0000.0001)  MDS_READ_SEC_XZ: opening file: pickup_orlanskiS.ckptA.011.004.data
(PID.TID 0000.0001)  MDS_READ_SEC_XZ: opening file: pickup_orlanskiS.ckptA.012.004.data
(PID.TID 0000.0001)  MDS_READ_SEC_XZ: opening file: pickup_orlanskiS.ckptA.013.004.data
(PID.TID 0000.0001)  MDS_READ_SEC_XZ: opening file: pickup_orlanskiS.ckptA.014.004.data
(PID.TID 0000.0001)  MDS_READ_SEC_XZ: opening file: pickup_orlanskiS.ckptA.015.004.data
(PID.TID 0000.0001)  MDS_READ_SEC_XZ: opening file: pickup_orlanskiS.ckptA.001.005.data
(PID.TID 0000.0001)  MDS_READ_SEC_XZ: opening file: pickup_orlanskiS.ckptA.002.005.data
(PID.TID 0000.0001)  MDS_READ_SEC_XZ: opening file: pickup_orlanskiS.ckptA.003.005.data
(PID.TID 0000.0001)  MDS_READ_SEC_XZ: opening file: pickup_orlanskiS.ckptA.004.005.data
(PID.TID 0000.0001)  MDS_READ_SEC_XZ: opening file: pickup_orlanskiS.ckptA.005.005.data
(PID.TID 0000.0001)  MDS_READ_SEC_XZ: opening file: pickup_orlanskiS.ckptA.006.005.data
(PID.TID 0000.0001)  MDS_READ_SEC_XZ: opening file: pickup_orlanskiS.ckptA.007.005.data
(PID.TID 0000.0001)  MDS_READ_SEC_XZ: opening file: pickup_orlanskiS.ckptA.008.005.data
(PID.TID 0000.0001)  MDS_READ_SEC_XZ: opening file: pickup_orlanskiS.ckptA.009.005.data
(PID.TID 0000.0001)  MDS_READ_SEC_XZ: opening file: pickup_orlanskiS.ckptA.010.005.data
(PID.TID 0000.0001)  MDS_READ_SEC_XZ: opening file: pickup_orlanskiS.ckptA.011.005.data
(PID.TID 0000.0001)  MDS_READ_SEC_XZ: opening file: pickup_orlanskiS.ckptA.012.005.data
(PID.TID 0000.0001)  MDS_READ_SEC_XZ: opening file: pickup_orlanskiS.ckptA.013.005.data
(PID.TID 0000.0001)  MDS_READ_SEC_XZ: opening file: pickup_orlanskiS.ckptA.014.005.data
(PID.TID 0000.0001)  MDS_READ_SEC_XZ: opening file: pickup_orlanskiS.ckptA.015.005.data
(PID.TID 0000.0001)  MDS_READ_SEC_XZ: opening file: pickup_orlanskiS.ckptA.001.006.data
(PID.TID 0000.0001)  MDS_READ_SEC_XZ: opening file: pickup_orlanskiS.ckptA.002.006.data
(PID.TID 0000.0001)  MDS_READ_SEC_XZ: opening file: pickup_orlanskiS.ckptA.003.006.data
(PID.TID 0000.0001)  MDS_READ_SEC_XZ: opening file: pickup_orlanskiS.ckptA.004.006.data
(PID.TID 0000.0001)  MDS_READ_SEC_XZ: opening file: pickup_orlanskiS.ckptA.005.006.data
(PID.TID 0000.0001)  MDS_READ_SEC_XZ: opening file: pickup_orlanskiS.ckptA.006.006.data
(PID.TID 0000.0001)  MDS_READ_SEC_XZ: opening file: pickup_orlanskiS.ckptA.007.006.data
(PID.TID 0000.0001)  MDS_READ_SEC_XZ: opening file: pickup_orlanskiS.ckptA.008.006.data
(PID.TID 0000.0001)  MDS_READ_SEC_XZ: opening file: pickup_orlanskiS.ckptA.009.006.data
(PID.TID 0000.0001)  MDS_READ_SEC_XZ: opening file: pickup_orlanskiS.ckptA.010.006.data
(PID.TID 0000.0001)  MDS_READ_SEC_XZ: opening file: pickup_orlanskiS.ckptA.011.006.data
(PID.TID 0000.0001)  MDS_READ_SEC_XZ: opening file: pickup_orlanskiS.ckptA.012.006.data
(PID.TID 0000.0001)  MDS_READ_SEC_XZ: opening file: pickup_orlanskiS.ckptA.013.006.data
(PID.TID 0000.0001)  MDS_READ_SEC_XZ: opening file: pickup_orlanskiS.ckptA.014.006.data
(PID.TID 0000.0001)  MDS_READ_SEC_XZ: opening file: pickup_orlanskiS.ckptA.015.006.data
(PID.TID 0000.0001)  MDS_READ_SEC_XZ: opening file: pickup_orlanskiS.ckptA.001.007.data
(PID.TID 0000.0001)  MDS_READ_SEC_XZ: opening file: pickup_orlanskiS.ckptA.002.007.data
(PID.TID 0000.0001)  MDS_READ_SEC_XZ: opening file: pickup_orlanskiS.ckptA.003.007.data
(PID.TID 0000.0001)  MDS_READ_SEC_XZ: opening file: pickup_orlanskiS.ckptA.004.007.data
(PID.TID 0000.0001)  MDS_READ_SEC_XZ: opening file: pickup_orlanskiS.ckptA.005.007.data
(PID.TID 0000.0001)  MDS_READ_SEC_XZ: opening file: pickup_orlanskiS.ckptA.006.007.data
(PID.TID 0000.0001)  MDS_READ_SEC_XZ: opening file: pickup_orlanskiS.ckptA.007.007.data
(PID.TID 0000.0001)  MDS_READ_SEC_XZ: opening file: pickup_orlanskiS.ckptA.008.007.data
(PID.TID 0000.0001)  MDS_READ_SEC_XZ: opening file: pickup_orlanskiS.ckptA.009.007.data
(PID.TID 0000.0001)  MDS_READ_SEC_XZ: opening file: pickup_orlanskiS.ckptA.010.007.data
(PID.TID 0000.0001)  MDS_READ_SEC_XZ: opening file: pickup_orlanskiS.ckptA.011.007.data
(PID.TID 0000.0001)  MDS_READ_SEC_XZ: opening file: pickup_orlanskiS.ckptA.012.007.data
(PID.TID 0000.0001)  MDS_READ_SEC_XZ: opening file: pickup_orlanskiS.ckptA.013.007.data
(PID.TID 0000.0001)  MDS_READ_SEC_XZ: opening file: pickup_orlanskiS.ckptA.014.007.data
(PID.TID 0000.0001)  MDS_READ_SEC_XZ: opening file: pickup_orlanskiS.ckptA.015.007.data
(PID.TID 0000.0001)  MDS_READ_SEC_XZ: opening file: pickup_orlanskiS.ckptA.001.008.data
(PID.TID 0000.0001)  MDS_READ_SEC_XZ: opening file: pickup_orlanskiS.ckptA.002.008.data
(PID.TID 0000.0001)  MDS_READ_SEC_XZ: opening file: pickup_orlanskiS.ckptA.003.008.data
(PID.TID 0000.0001)  MDS_READ_SEC_XZ: opening file: pickup_orlanskiS.ckptA.004.008.data
(PID.TID 0000.0001)  MDS_READ_SEC_XZ: opening file: pickup_orlanskiS.ckptA.005.008.data
(PID.TID 0000.0001)  MDS_READ_SEC_XZ: opening file: pickup_orlanskiS.ckptA.006.008.data
(PID.TID 0000.0001)  MDS_READ_SEC_XZ: opening file: pickup_orlanskiS.ckptA.007.008.data
(PID.TID 0000.0001)  MDS_READ_SEC_XZ: opening file: pickup_orlanskiS.ckptA.008.008.data
(PID.TID 0000.0001)  MDS_READ_SEC_XZ: opening file: pickup_orlanskiS.ckptA.009.008.data
(PID.TID 0000.0001)  MDS_READ_SEC_XZ: opening file: pickup_orlanskiS.ckptA.010.008.data
(PID.TID 0000.0001)  MDS_READ_SEC_XZ: opening file: pickup_orlanskiS.ckptA.011.008.data
(PID.TID 0000.0001)  MDS_READ_SEC_XZ: opening file: pickup_orlanskiS.ckptA.012.008.data
(PID.TID 0000.0001)  MDS_READ_SEC_XZ: opening file: pickup_orlanskiS.ckptA.013.008.data
(PID.TID 0000.0001)  MDS_READ_SEC_XZ: opening file: pickup_orlanskiS.ckptA.014.008.data
(PID.TID 0000.0001)  MDS_READ_SEC_XZ: opening file: pickup_orlanskiS.ckptA.015.008.data
(PID.TID 0000.0001)  MDS_READ_SEC_XZ: opening file: pickup_orlanskiS.ckptA.001.009.data
(PID.TID 0000.0001)  MDS_READ_SEC_XZ: opening file: pickup_orlanskiS.ckptA.002.009.data
(PID.TID 0000.0001)  MDS_READ_SEC_XZ: opening file: pickup_orlanskiS.ckptA.003.009.data
(PID.TID 0000.0001)  MDS_READ_SEC_XZ: opening file: pickup_orlanskiS.ckptA.004.009.data
(PID.TID 0000.0001)  MDS_READ_SEC_XZ: opening file: pickup_orlanskiS.ckptA.005.009.data
(PID.TID 0000.0001)  MDS_READ_SEC_XZ: opening file: pickup_orlanskiS.ckptA.006.009.data
(PID.TID 0000.0001)  MDS_READ_SEC_XZ: opening file: pickup_orlanskiS.ckptA.007.009.data
(PID.TID 0000.0001)  MDS_READ_SEC_XZ: opening file: pickup_orlanskiS.ckptA.008.009.data
(PID.TID 0000.0001)  MDS_READ_SEC_XZ: opening file: pickup_orlanskiS.ckptA.009.009.data
(PID.TID 0000.0001)  MDS_READ_SEC_XZ: opening file: pickup_orlanskiS.ckptA.010.009.data
(PID.TID 0000.0001)  MDS_READ_SEC_XZ: opening file: pickup_orlanskiS.ckptA.011.009.data
(PID.TID 0000.0001)  MDS_READ_SEC_XZ: opening file: pickup_orlanskiS.ckptA.012.009.data
(PID.TID 0000.0001)  MDS_READ_SEC_XZ: opening file: pickup_orlanskiS.ckptA.013.009.data
(PID.TID 0000.0001)  MDS_READ_SEC_XZ: opening file: pickup_orlanskiS.ckptA.014.009.data
(PID.TID 0000.0001)  MDS_READ_SEC_XZ: opening file: pickup_orlanskiS.ckptA.015.009.data
(PID.TID 0000.0001)  MDS_READ_SEC_XZ: opening file: pickup_orlanskiS.ckptA.001.010.data
(PID.TID 0000.0001)  MDS_READ_SEC_XZ: opening file: pickup_orlanskiS.ckptA.002.010.data
(PID.TID 0000.0001)  MDS_READ_SEC_XZ: opening file: pickup_orlanskiS.ckptA.003.010.data
(PID.TID 0000.0001)  MDS_READ_SEC_XZ: opening file: pickup_orlanskiS.ckptA.004.010.data
(PID.TID 0000.0001)  MDS_READ_SEC_XZ: opening file: pickup_orlanskiS.ckptA.005.010.data
(PID.TID 0000.0001)  MDS_READ_SEC_XZ: opening file: pickup_orlanskiS.ckptA.006.010.data
(PID.TID 0000.0001)  MDS_READ_SEC_XZ: opening file: pickup_orlanskiS.ckptA.007.010.data
(PID.TID 0000.0001)  MDS_READ_SEC_XZ: opening file: pickup_orlanskiS.ckptA.008.010.data
(PID.TID 0000.0001)  MDS_READ_SEC_XZ: opening file: pickup_orlanskiS.ckptA.009.010.data
(PID.TID 0000.0001)  MDS_READ_SEC_XZ: opening file: pickup_orlanskiS.ckptA.010.010.data
(PID.TID 0000.0001)  MDS_READ_SEC_XZ: opening file: pickup_orlanskiS.ckptA.011.010.data
(PID.TID 0000.0001)  MDS_READ_SEC_XZ: opening file: pickup_orlanskiS.ckptA.012.010.data
(PID.TID 0000.0001)  MDS_READ_SEC_XZ: opening file: pickup_orlanskiS.ckptA.013.010.data
(PID.TID 0000.0001)  MDS_READ_SEC_XZ: opening file: pickup_orlanskiS.ckptA.014.010.data
(PID.TID 0000.0001)  MDS_READ_SEC_XZ: opening file: pickup_orlanskiS.ckptA.015.010.data
(PID.TID 0000.0001)  MDS_READ_SEC_XZ: opening file: pickup_orlanskiS.ckptA.001.011.data
(PID.TID 0000.0001)  MDS_READ_SEC_XZ: opening file: pickup_orlanskiS.ckptA.002.011.data
(PID.TID 0000.0001)  MDS_READ_SEC_XZ: opening file: pickup_orlanskiS.ckptA.003.011.data
(PID.TID 0000.0001)  MDS_READ_SEC_XZ: opening file: pickup_orlanskiS.ckptA.004.011.data
(PID.TID 0000.0001)  MDS_READ_SEC_XZ: opening file: pickup_orlanskiS.ckptA.005.011.data
(PID.TID 0000.0001)  MDS_READ_SEC_XZ: opening file: pickup_orlanskiS.ckptA.006.011.data
(PID.TID 0000.0001)  MDS_READ_SEC_XZ: opening file: pickup_orlanskiS.ckptA.007.011.data
(PID.TID 0000.0001)  MDS_READ_SEC_XZ: opening file: pickup_orlanskiS.ckptA.008.011.data
(PID.TID 0000.0001)  MDS_READ_SEC_XZ: opening file: pickup_orlanskiS.ckptA.009.011.data
(PID.TID 0000.0001)  MDS_READ_SEC_XZ: opening file: pickup_orlanskiS.ckptA.010.011.data
(PID.TID 0000.0001)  MDS_READ_SEC_XZ: opening file: pickup_orlanskiS.ckptA.011.011.data
(PID.TID 0000.0001)  MDS_READ_SEC_XZ: opening file: pickup_orlanskiS.ckptA.012.011.data
(PID.TID 0000.0001)  MDS_READ_SEC_XZ: opening file: pickup_orlanskiS.ckptA.013.011.data
(PID.TID 0000.0001)  MDS_READ_SEC_XZ: opening file: pickup_orlanskiS.ckptA.014.011.data
(PID.TID 0000.0001)  MDS_READ_SEC_XZ: opening file: pickup_orlanskiS.ckptA.015.011.data
(PID.TID 0000.0001)  MDS_READ_SEC_XZ: opening file: pickup_orlanskiS.ckptA.001.012.data
(PID.TID 0000.0001)  MDS_READ_SEC_XZ: opening file: pickup_orlanskiS.ckptA.002.012.data
(PID.TID 0000.0001)  MDS_READ_SEC_XZ: opening file: pickup_orlanskiS.ckptA.003.012.data
(PID.TID 0000.0001)  MDS_READ_SEC_XZ: opening file: pickup_orlanskiS.ckptA.004.012.data
(PID.TID 0000.0001)  MDS_READ_SEC_XZ: opening file: pickup_orlanskiS.ckptA.005.012.data
(PID.TID 0000.0001)  MDS_READ_SEC_XZ: opening file: pickup_orlanskiS.ckptA.006.012.data
(PID.TID 0000.0001)  MDS_READ_SEC_XZ: opening file: pickup_orlanskiS.ckptA.007.012.data
(PID.TID 0000.0001)  MDS_READ_SEC_XZ: opening file: pickup_orlanskiS.ckptA.008.012.data
(PID.TID 0000.0001)  MDS_READ_SEC_XZ: opening file: pickup_orlanskiS.ckptA.009.012.data
(PID.TID 0000.0001)  MDS_READ_SEC_XZ: opening file: pickup_orlanskiS.ckptA.010.012.data
(PID.TID 0000.0001)  MDS_READ_SEC_XZ: opening file: pickup_orlanskiS.ckptA.011.012.data
(PID.TID 0000.0001)  MDS_READ_SEC_XZ: opening file: pickup_orlanskiS.ckptA.012.012.data
(PID.TID 0000.0001)  MDS_READ_SEC_XZ: opening file: pickup_orlanskiS.ckptA.013.012.data
(PID.TID 0000.0001)  MDS_READ_SEC_XZ: opening file: pickup_orlanskiS.ckptA.014.012.data
(PID.TID 0000.0001)  MDS_READ_SEC_XZ: opening file: pickup_orlanskiS.ckptA.015.012.data
(PID.TID 0000.0001)  MDS_READ_SEC_XZ: opening file: pickup_orlanskiS.ckptA.001.013.data
(PID.TID 0000.0001)  MDS_READ_SEC_XZ: opening file: pickup_orlanskiS.ckptA.002.013.data
(PID.TID 0000.0001)  MDS_READ_SEC_XZ: opening file: pickup_orlanskiS.ckptA.003.013.data
(PID.TID 0000.0001)  MDS_READ_SEC_XZ: opening file: pickup_orlanskiS.ckptA.004.013.data
(PID.TID 0000.0001)  MDS_READ_SEC_XZ: opening file: pickup_orlanskiS.ckptA.005.013.data
(PID.TID 0000.0001)  MDS_READ_SEC_XZ: opening file: pickup_orlanskiS.ckptA.006.013.data
(PID.TID 0000.0001)  MDS_READ_SEC_XZ: opening file: pickup_orlanskiS.ckptA.007.013.data
(PID.TID 0000.0001)  MDS_READ_SEC_XZ: opening file: pickup_orlanskiS.ckptA.008.013.data
(PID.TID 0000.0001)  MDS_READ_SEC_XZ: opening file: pickup_orlanskiS.ckptA.009.013.data
(PID.TID 0000.0001)  MDS_READ_SEC_XZ: opening file: pickup_orlanskiS.ckptA.010.013.data
(PID.TID 0000.0001)  MDS_READ_SEC_XZ: opening file: pickup_orlanskiS.ckptA.011.013.data
(PID.TID 0000.0001)  MDS_READ_SEC_XZ: opening file: pickup_orlanskiS.ckptA.012.013.data
(PID.TID 0000.0001)  MDS_READ_SEC_XZ: opening file: pickup_orlanskiS.ckptA.013.013.data
(PID.TID 0000.0001)  MDS_READ_SEC_XZ: opening file: pickup_orlanskiS.ckptA.014.013.data
(PID.TID 0000.0001)  MDS_READ_SEC_XZ: opening file: pickup_orlanskiS.ckptA.015.013.data
(PID.TID 0000.0001)  MDS_READ_SEC_XZ: opening file: pickup_orlanskiS.ckptA.001.014.data
(PID.TID 0000.0001)  MDS_READ_SEC_XZ: opening file: pickup_orlanskiS.ckptA.002.014.data
(PID.TID 0000.0001)  MDS_READ_SEC_XZ: opening file: pickup_orlanskiS.ckptA.003.014.data
(PID.TID 0000.0001)  MDS_READ_SEC_XZ: opening file: pickup_orlanskiS.ckptA.004.014.data
(PID.TID 0000.0001)  MDS_READ_SEC_XZ: opening file: pickup_orlanskiS.ckptA.005.014.data
(PID.TID 0000.0001)  MDS_READ_SEC_XZ: opening file: pickup_orlanskiS.ckptA.006.014.data
(PID.TID 0000.0001)  MDS_READ_SEC_XZ: opening file: pickup_orlanskiS.ckptA.007.014.data
(PID.TID 0000.0001)  MDS_READ_SEC_XZ: opening file: pickup_orlanskiS.ckptA.008.014.data
(PID.TID 0000.0001)  MDS_READ_SEC_XZ: opening file: pickup_orlanskiS.ckptA.009.014.data
(PID.TID 0000.0001)  MDS_READ_SEC_XZ: opening file: pickup_orlanskiS.ckptA.010.014.data
(PID.TID 0000.0001)  MDS_READ_SEC_XZ: opening file: pickup_orlanskiS.ckptA.011.014.data
(PID.TID 0000.0001)  MDS_READ_SEC_XZ: opening file: pickup_orlanskiS.ckptA.012.014.data
(PID.TID 0000.0001)  MDS_READ_SEC_XZ: opening file: pickup_orlanskiS.ckptA.013.014.data
(PID.TID 0000.0001)  MDS_READ_SEC_XZ: opening file: pickup_orlanskiS.ckptA.014.014.data
(PID.TID 0000.0001)  MDS_READ_SEC_XZ: opening file: pickup_orlanskiS.ckptA.015.014.data
(PID.TID 0000.0001)  MDS_READ_SEC_XZ: opening file: pickup_orlanskiS.ckptA.001.015.data
(PID.TID 0000.0001)  MDS_READ_SEC_XZ: opening file: pickup_orlanskiS.ckptA.002.015.data
(PID.TID 0000.0001)  MDS_READ_SEC_XZ: opening file: pickup_orlanskiS.ckptA.003.015.data
(PID.TID 0000.0001)  MDS_READ_SEC_XZ: opening file: pickup_orlanskiS.ckptA.004.015.data
(PID.TID 0000.0001)  MDS_READ_SEC_XZ: opening file: pickup_orlanskiS.ckptA.005.015.data
(PID.TID 0000.0001)  MDS_READ_SEC_XZ: opening file: pickup_orlanskiS.ckptA.006.015.data
(PID.TID 0000.0001)  MDS_READ_SEC_XZ: opening file: pickup_orlanskiS.ckptA.007.015.data
(PID.TID 0000.0001)  MDS_READ_SEC_XZ: opening file: pickup_orlanskiS.ckptA.008.015.data
(PID.TID 0000.0001)  MDS_READ_SEC_XZ: opening file: pickup_orlanskiS.ckptA.009.015.data
(PID.TID 0000.0001)  MDS_READ_SEC_XZ: opening file: pickup_orlanskiS.ckptA.010.015.data
(PID.TID 0000.0001)  MDS_READ_SEC_XZ: opening file: pickup_orlanskiS.ckptA.011.015.data
(PID.TID 0000.0001)  MDS_READ_SEC_XZ: opening file: pickup_orlanskiS.ckptA.012.015.data
(PID.TID 0000.0001)  MDS_READ_SEC_XZ: opening file: pickup_orlanskiS.ckptA.013.015.data
(PID.TID 0000.0001)  MDS_READ_SEC_XZ: opening file: pickup_orlanskiS.ckptA.014.015.data
(PID.TID 0000.0001)  MDS_READ_SEC_XZ: opening file: pickup_orlanskiS.ckptA.015.015.data
(PID.TID 0000.0001)  MDS_READ_SEC_XZ: opening file: pickup_orlanskiS.ckptA.001.001.data
(PID.TID 0000.0001)  MDS_READ_SEC_XZ: opening file: pickup_orlanskiS.ckptA.002.001.data
(PID.TID 0000.0001)  MDS_READ_SEC_XZ: opening file: pickup_orlanskiS.ckptA.003.001.data
(PID.TID 0000.0001)  MDS_READ_SEC_XZ: opening file: pickup_orlanskiS.ckptA.004.001.data
(PID.TID 0000.0001)  MDS_READ_SEC_XZ: opening file: pickup_orlanskiS.ckptA.005.001.data
(PID.TID 0000.0001)  MDS_READ_SEC_XZ: opening file: pickup_orlanskiS.ckptA.006.001.data
(PID.TID 0000.0001)  MDS_READ_SEC_XZ: opening file: pickup_orlanskiS.ckptA.007.001.data
(PID.TID 0000.0001)  MDS_READ_SEC_XZ: opening file: pickup_orlanskiS.ckptA.008.001.data
(PID.TID 0000.0001)  MDS_READ_SEC_XZ: opening file: pickup_orlanskiS.ckptA.009.001.data
(PID.TID 0000.0001)  MDS_READ_SEC_XZ: opening file: pickup_orlanskiS.ckptA.010.001.data
(PID.TID 0000.0001)  MDS_READ_SEC_XZ: opening file: pickup_orlanskiS.ckptA.011.001.data
(PID.TID 0000.0001)  MDS_READ_SEC_XZ: opening file: pickup_orlanskiS.ckptA.012.001.data
(PID.TID 0000.0001)  MDS_READ_SEC_XZ: opening file: pickup_orlanskiS.ckptA.013.001.data
(PID.TID 0000.0001)  MDS_READ_SEC_XZ: opening file: pickup_orlanskiS.ckptA.014.001.data
(PID.TID 0000.0001)  MDS_READ_SEC_XZ: opening file: pickup_orlanskiS.ckptA.015.001.data
(PID.TID 0000.0001)  MDS_READ_SEC_XZ: opening file: pickup_orlanskiS.ckptA.001.002.data
(PID.TID 0000.0001)  MDS_READ_SEC_XZ: opening file: pickup_orlanskiS.ckptA.002.002.data
(PID.TID 0000.0001)  MDS_READ_SEC_XZ: opening file: pickup_orlanskiS.ckptA.003.002.data
(PID.TID 0000.0001)  MDS_READ_SEC_XZ: opening file: pickup_orlanskiS.ckptA.004.002.data
(PID.TID 0000.0001)  MDS_READ_SEC_XZ: opening file: pickup_orlanskiS.ckptA.005.002.data
(PID.TID 0000.0001)  MDS_READ_SEC_XZ: opening file: pickup_orlanskiS.ckptA.006.002.data
(PID.TID 0000.0001)  MDS_READ_SEC_XZ: opening file: pickup_orlanskiS.ckptA.007.002.data
(PID.TID 0000.0001)  MDS_READ_SEC_XZ: opening file: pickup_orlanskiS.ckptA.008.002.data
(PID.TID 0000.0001)  MDS_READ_SEC_XZ: opening file: pickup_orlanskiS.ckptA.009.002.data
(PID.TID 0000.0001)  MDS_READ_SEC_XZ: opening file: pickup_orlanskiS.ckptA.010.002.data
(PID.TID 0000.0001)  MDS_READ_SEC_XZ: opening file: pickup_orlanskiS.ckptA.011.002.data
(PID.TID 0000.0001)  MDS_READ_SEC_XZ: opening file: pickup_orlanskiS.ckptA.012.002.data
(PID.TID 0000.0001)  MDS_READ_SEC_XZ: opening file: pickup_orlanskiS.ckptA.013.002.data
(PID.TID 0000.0001)  MDS_READ_SEC_XZ: opening file: pickup_orlanskiS.ckptA.014.002.data
(PID.TID 0000.0001)  MDS_READ_SEC_XZ: opening file: pickup_orlanskiS.ckptA.015.002.data
(PID.TID 0000.0001)  MDS_READ_SEC_XZ: opening file: pickup_orlanskiS.ckptA.001.003.data
(PID.TID 0000.0001)  MDS_READ_SEC_XZ: opening file: pickup_orlanskiS.ckptA.002.003.data
(PID.TID 0000.0001)  MDS_READ_SEC_XZ: opening file: pickup_orlanskiS.ckptA.003.003.data
(PID.TID 0000.0001)  MDS_READ_SEC_XZ: opening file: pickup_orlanskiS.ckptA.004.003.data
(PID.TID 0000.0001)  MDS_READ_SEC_XZ: opening file: pickup_orlanskiS.ckptA.005.003.data
(PID.TID 0000.0001)  MDS_READ_SEC_XZ: opening file: pickup_orlanskiS.ckptA.006.003.data
(PID.TID 0000.0001)  MDS_READ_SEC_XZ: opening file: pickup_orlanskiS.ckptA.007.003.data
(PID.TID 0000.0001)  MDS_READ_SEC_XZ: opening file: pickup_orlanskiS.ckptA.008.003.data
(PID.TID 0000.0001)  MDS_READ_SEC_XZ: opening file: pickup_orlanskiS.ckptA.009.003.data
(PID.TID 0000.0001)  MDS_READ_SEC_XZ: opening file: pickup_orlanskiS.ckptA.010.003.data
(PID.TID 0000.0001)  MDS_READ_SEC_XZ: opening file: pickup_orlanskiS.ckptA.011.003.data
(PID.TID 0000.0001)  MDS_READ_SEC_XZ: opening file: pickup_orlanskiS.ckptA.012.003.data
(PID.TID 0000.0001)  MDS_READ_SEC_XZ: opening file: pickup_orlanskiS.ckptA.013.003.data
(PID.TID 0000.0001)  MDS_READ_SEC_XZ: opening file: pickup_orlanskiS.ckptA.014.003.data
(PID.TID 0000.0001)  MDS_READ_SEC_XZ: opening file: pickup_orlanskiS.ckptA.015.003.data
(PID.TID 0000.0001)  MDS_READ_SEC_XZ: opening file: pickup_orlanskiS.ckptA.001.004.data
(PID.TID 0000.0001)  MDS_READ_SEC_XZ: opening file: pickup_orlanskiS.ckptA.002.004.data
(PID.TID 0000.0001)  MDS_READ_SEC_XZ: opening file: pickup_orlanskiS.ckptA.003.004.data
(PID.TID 0000.0001)  MDS_READ_SEC_XZ: opening file: pickup_orlanskiS.ckptA.004.004.data
(PID.TID 0000.0001)  MDS_READ_SEC_XZ: opening file: pickup_orlanskiS.ckptA.005.004.data
(PID.TID 0000.0001)  MDS_READ_SEC_XZ: opening file: pickup_orlanskiS.ckptA.006.004.data
(PID.TID 0000.0001)  MDS_READ_SEC_XZ: opening file: pickup_orlanskiS.ckptA.007.004.data
(PID.TID 0000.0001)  MDS_READ_SEC_XZ: opening file: pickup_orlanskiS.ckptA.008.004.data
(PID.TID 0000.0001)  MDS_READ_SEC_XZ: opening file: pickup_orlanskiS.ckptA.009.004.data
(PID.TID 0000.0001)  MDS_READ_SEC_XZ: opening file: pickup_orlanskiS.ckptA.010.004.data
(PID.TID 0000.0001)  MDS_READ_SEC_XZ: opening file: pickup_orlanskiS.ckptA.011.004.data
(PID.TID 0000.0001)  MDS_READ_SEC_XZ: opening file: pickup_orlanskiS.ckptA.012.004.data
(PID.TID 0000.0001)  MDS_READ_SEC_XZ: opening file: pickup_orlanskiS.ckptA.013.004.data
(PID.TID 0000.0001)  MDS_READ_SEC_XZ: opening file: pickup_orlanskiS.ckptA.014.004.data
(PID.TID 0000.0001)  MDS_READ_SEC_XZ: opening file: pickup_orlanskiS.ckptA.015.004.data
(PID.TID 0000.0001)  MDS_READ_SEC_XZ: opening file: pickup_orlanskiS.ckptA.001.005.data
(PID.TID 0000.0001)  MDS_READ_SEC_XZ: opening file: pickup_orlanskiS.ckptA.002.005.data
(PID.TID 0000.0001)  MDS_READ_SEC_XZ: opening file: pickup_orlanskiS.ckptA.003.005.data
(PID.TID 0000.0001)  MDS_READ_SEC_XZ: opening file: pickup_orlanskiS.ckptA.004.005.data
(PID.TID 0000.0001)  MDS_READ_SEC_XZ: opening file: pickup_orlanskiS.ckptA.005.005.data
(PID.TID 0000.0001)  MDS_READ_SEC_XZ: opening file: pickup_orlanskiS.ckptA.006.005.data
(PID.TID 0000.0001)  MDS_READ_SEC_XZ: opening file: pickup_orlanskiS.ckptA.007.005.data
(PID.TID 0000.0001)  MDS_READ_SEC_XZ: opening file: pickup_orlanskiS.ckptA.008.005.data
(PID.TID 0000.0001)  MDS_READ_SEC_XZ: opening file: pickup_orlanskiS.ckptA.009.005.data
(PID.TID 0000.0001)  MDS_READ_SEC_XZ: opening file: pickup_orlanskiS.ckptA.010.005.data
(PID.TID 0000.0001)  MDS_READ_SEC_XZ: opening file: pickup_orlanskiS.ckptA.011.005.data
(PID.TID 0000.0001)  MDS_READ_SEC_XZ: opening file: pickup_orlanskiS.ckptA.012.005.data
(PID.TID 0000.0001)  MDS_READ_SEC_XZ: opening file: pickup_orlanskiS.ckptA.013.005.data
(PID.TID 0000.0001)  MDS_READ_SEC_XZ: opening file: pickup_orlanskiS.ckptA.014.005.data
(PID.TID 0000.0001)  MDS_READ_SEC_XZ: opening file: pickup_orlanskiS.ckptA.015.005.data
(PID.TID 0000.0001)  MDS_READ_SEC_XZ: opening file: pickup_orlanskiS.ckptA.001.006.data
(PID.TID 0000.0001)  MDS_READ_SEC_XZ: opening file: pickup_orlanskiS.ckptA.002.006.data
(PID.TID 0000.0001)  MDS_READ_SEC_XZ: opening file: pickup_orlanskiS.ckptA.003.006.data
(PID.TID 0000.0001)  MDS_READ_SEC_XZ: opening file: pickup_orlanskiS.ckptA.004.006.data
(PID.TID 0000.0001)  MDS_READ_SEC_XZ: opening file: pickup_orlanskiS.ckptA.005.006.data
(PID.TID 0000.0001)  MDS_READ_SEC_XZ: opening file: pickup_orlanskiS.ckptA.006.006.data
(PID.TID 0000.0001)  MDS_READ_SEC_XZ: opening file: pickup_orlanskiS.ckptA.007.006.data
(PID.TID 0000.0001)  MDS_READ_SEC_XZ: opening file: pickup_orlanskiS.ckptA.008.006.data
(PID.TID 0000.0001)  MDS_READ_SEC_XZ: opening file: pickup_orlanskiS.ckptA.009.006.data
(PID.TID 0000.0001)  MDS_READ_SEC_XZ: opening file: pickup_orlanskiS.ckptA.010.006.data
(PID.TID 0000.0001)  MDS_READ_SEC_XZ: opening file: pickup_orlanskiS.ckptA.011.006.data
(PID.TID 0000.0001)  MDS_READ_SEC_XZ: opening file: pickup_orlanskiS.ckptA.012.006.data
(PID.TID 0000.0001)  MDS_READ_SEC_XZ: opening file: pickup_orlanskiS.ckptA.013.006.data
(PID.TID 0000.0001)  MDS_READ_SEC_XZ: opening file: pickup_orlanskiS.ckptA.014.006.data
(PID.TID 0000.0001)  MDS_READ_SEC_XZ: opening file: pickup_orlanskiS.ckptA.015.006.data
(PID.TID 0000.0001)  MDS_READ_SEC_XZ: opening file: pickup_orlanskiS.ckptA.001.007.data
(PID.TID 0000.0001)  MDS_READ_SEC_XZ: opening file: pickup_orlanskiS.ckptA.002.007.data
(PID.TID 0000.0001)  MDS_READ_SEC_XZ: opening file: pickup_orlanskiS.ckptA.003.007.data
(PID.TID 0000.0001)  MDS_READ_SEC_XZ: opening file: pickup_orlanskiS.ckptA.004.007.data
(PID.TID 0000.0001)  MDS_READ_SEC_XZ: opening file: pickup_orlanskiS.ckptA.005.007.data
(PID.TID 0000.0001)  MDS_READ_SEC_XZ: opening file: pickup_orlanskiS.ckptA.006.007.data
(PID.TID 0000.0001)  MDS_READ_SEC_XZ: opening file: pickup_orlanskiS.ckptA.007.007.data
(PID.TID 0000.0001)  MDS_READ_SEC_XZ: opening file: pickup_orlanskiS.ckptA.008.007.data
(PID.TID 0000.0001)  MDS_READ_SEC_XZ: opening file: pickup_orlanskiS.ckptA.009.007.data
(PID.TID 0000.0001)  MDS_READ_SEC_XZ: opening file: pickup_orlanskiS.ckptA.010.007.data
(PID.TID 0000.0001)  MDS_READ_SEC_XZ: opening file: pickup_orlanskiS.ckptA.011.007.data
(PID.TID 0000.0001)  MDS_READ_SEC_XZ: opening file: pickup_orlanskiS.ckptA.012.007.data
(PID.TID 0000.0001)  MDS_READ_SEC_XZ: opening file: pickup_orlanskiS.ckptA.013.007.data
(PID.TID 0000.0001)  MDS_READ_SEC_XZ: opening file: pickup_orlanskiS.ckptA.014.007.data
(PID.TID 0000.0001)  MDS_READ_SEC_XZ: opening file: pickup_orlanskiS.ckptA.015.007.data
(PID.TID 0000.0001)  MDS_READ_SEC_XZ: opening file: pickup_orlanskiS.ckptA.001.008.data
(PID.TID 0000.0001)  MDS_READ_SEC_XZ: opening file: pickup_orlanskiS.ckptA.002.008.data
(PID.TID 0000.0001)  MDS_READ_SEC_XZ: opening file: pickup_orlanskiS.ckptA.003.008.data
(PID.TID 0000.0001)  MDS_READ_SEC_XZ: opening file: pickup_orlanskiS.ckptA.004.008.data
(PID.TID 0000.0001)  MDS_READ_SEC_XZ: opening file: pickup_orlanskiS.ckptA.005.008.data
(PID.TID 0000.0001)  MDS_READ_SEC_XZ: opening file: pickup_orlanskiS.ckptA.006.008.data
(PID.TID 0000.0001)  MDS_READ_SEC_XZ: opening file: pickup_orlanskiS.ckptA.007.008.data
(PID.TID 0000.0001)  MDS_READ_SEC_XZ: opening file: pickup_orlanskiS.ckptA.008.008.data
(PID.TID 0000.0001)  MDS_READ_SEC_XZ: opening file: pickup_orlanskiS.ckptA.009.008.data
(PID.TID 0000.0001)  MDS_READ_SEC_XZ: opening file: pickup_orlanskiS.ckptA.010.008.data
(PID.TID 0000.0001)  MDS_READ_SEC_XZ: opening file: pickup_orlanskiS.ckptA.011.008.data
(PID.TID 0000.0001)  MDS_READ_SEC_XZ: opening file: pickup_orlanskiS.ckptA.012.008.data
(PID.TID 0000.0001)  MDS_READ_SEC_XZ: opening file: pickup_orlanskiS.ckptA.013.008.data
(PID.TID 0000.0001)  MDS_READ_SEC_XZ: opening file: pickup_orlanskiS.ckptA.014.008.data
(PID.TID 0000.0001)  MDS_READ_SEC_XZ: opening file: pickup_orlanskiS.ckptA.015.008.data
(PID.TID 0000.0001)  MDS_READ_SEC_XZ: opening file: pickup_orlanskiS.ckptA.001.009.data
(PID.TID 0000.0001)  MDS_READ_SEC_XZ: opening file: pickup_orlanskiS.ckptA.002.009.data
(PID.TID 0000.0001)  MDS_READ_SEC_XZ: opening file: pickup_orlanskiS.ckptA.003.009.data
(PID.TID 0000.0001)  MDS_READ_SEC_XZ: opening file: pickup_orlanskiS.ckptA.004.009.data
(PID.TID 0000.0001)  MDS_READ_SEC_XZ: opening file: pickup_orlanskiS.ckptA.005.009.data
(PID.TID 0000.0001)  MDS_READ_SEC_XZ: opening file: pickup_orlanskiS.ckptA.006.009.data
(PID.TID 0000.0001)  MDS_READ_SEC_XZ: opening file: pickup_orlanskiS.ckptA.007.009.data
(PID.TID 0000.0001)  MDS_READ_SEC_XZ: opening file: pickup_orlanskiS.ckptA.008.009.data
(PID.TID 0000.0001)  MDS_READ_SEC_XZ: opening file: pickup_orlanskiS.ckptA.009.009.data
(PID.TID 0000.0001)  MDS_READ_SEC_XZ: opening file: pickup_orlanskiS.ckptA.010.009.data
(PID.TID 0000.0001)  MDS_READ_SEC_XZ: opening file: pickup_orlanskiS.ckptA.011.009.data
(PID.TID 0000.0001)  MDS_READ_SEC_XZ: opening file: pickup_orlanskiS.ckptA.012.009.data
(PID.TID 0000.0001)  MDS_READ_SEC_XZ: opening file: pickup_orlanskiS.ckptA.013.009.data
(PID.TID 0000.0001)  MDS_READ_SEC_XZ: opening file: pickup_orlanskiS.ckptA.014.009.data
(PID.TID 0000.0001)  MDS_READ_SEC_XZ: opening file: pickup_orlanskiS.ckptA.015.009.data
(PID.TID 0000.0001)  MDS_READ_SEC_XZ: opening file: pickup_orlanskiS.ckptA.001.010.data
(PID.TID 0000.0001)  MDS_READ_SEC_XZ: opening file: pickup_orlanskiS.ckptA.002.010.data
(PID.TID 0000.0001)  MDS_READ_SEC_XZ: opening file: pickup_orlanskiS.ckptA.003.010.data
(PID.TID 0000.0001)  MDS_READ_SEC_XZ: opening file: pickup_orlanskiS.ckptA.004.010.data
(PID.TID 0000.0001)  MDS_READ_SEC_XZ: opening file: pickup_orlanskiS.ckptA.005.010.data
(PID.TID 0000.0001)  MDS_READ_SEC_XZ: opening file: pickup_orlanskiS.ckptA.006.010.data
(PID.TID 0000.0001)  MDS_READ_SEC_XZ: opening file: pickup_orlanskiS.ckptA.007.010.data
(PID.TID 0000.0001)  MDS_READ_SEC_XZ: opening file: pickup_orlanskiS.ckptA.008.010.data
(PID.TID 0000.0001)  MDS_READ_SEC_XZ: opening file: pickup_orlanskiS.ckptA.009.010.data
(PID.TID 0000.0001)  MDS_READ_SEC_XZ: opening file: pickup_orlanskiS.ckptA.010.010.data
(PID.TID 0000.0001)  MDS_READ_SEC_XZ: opening file: pickup_orlanskiS.ckptA.011.010.data
(PID.TID 0000.0001)  MDS_READ_SEC_XZ: opening file: pickup_orlanskiS.ckptA.012.010.data
(PID.TID 0000.0001)  MDS_READ_SEC_XZ: opening file: pickup_orlanskiS.ckptA.013.010.data
(PID.TID 0000.0001)  MDS_READ_SEC_XZ: opening file: pickup_orlanskiS.ckptA.014.010.data
(PID.TID 0000.0001)  MDS_READ_SEC_XZ: opening file: pickup_orlanskiS.ckptA.015.010.data
(PID.TID 0000.0001)  MDS_READ_SEC_XZ: opening file: pickup_orlanskiS.ckptA.001.011.data
(PID.TID 0000.0001)  MDS_READ_SEC_XZ: opening file: pickup_orlanskiS.ckptA.002.011.data
(PID.TID 0000.0001)  MDS_READ_SEC_XZ: opening file: pickup_orlanskiS.ckptA.003.011.data
(PID.TID 0000.0001)  MDS_READ_SEC_XZ: opening file: pickup_orlanskiS.ckptA.004.011.data
(PID.TID 0000.0001)  MDS_READ_SEC_XZ: opening file: pickup_orlanskiS.ckptA.005.011.data
(PID.TID 0000.0001)  MDS_READ_SEC_XZ: opening file: pickup_orlanskiS.ckptA.006.011.data
(PID.TID 0000.0001)  MDS_READ_SEC_XZ: opening file: pickup_orlanskiS.ckptA.007.011.data
(PID.TID 0000.0001)  MDS_READ_SEC_XZ: opening file: pickup_orlanskiS.ckptA.008.011.data
(PID.TID 0000.0001)  MDS_READ_SEC_XZ: opening file: pickup_orlanskiS.ckptA.009.011.data
(PID.TID 0000.0001)  MDS_READ_SEC_XZ: opening file: pickup_orlanskiS.ckptA.010.011.data
(PID.TID 0000.0001)  MDS_READ_SEC_XZ: opening file: pickup_orlanskiS.ckptA.011.011.data
(PID.TID 0000.0001)  MDS_READ_SEC_XZ: opening file: pickup_orlanskiS.ckptA.012.011.data
(PID.TID 0000.0001)  MDS_READ_SEC_XZ: opening file: pickup_orlanskiS.ckptA.013.011.data
(PID.TID 0000.0001)  MDS_READ_SEC_XZ: opening file: pickup_orlanskiS.ckptA.014.011.data
(PID.TID 0000.0001)  MDS_READ_SEC_XZ: opening file: pickup_orlanskiS.ckptA.015.011.data
(PID.TID 0000.0001)  MDS_READ_SEC_XZ: opening file: pickup_orlanskiS.ckptA.001.012.data
(PID.TID 0000.0001)  MDS_READ_SEC_XZ: opening file: pickup_orlanskiS.ckptA.002.012.data
(PID.TID 0000.0001)  MDS_READ_SEC_XZ: opening file: pickup_orlanskiS.ckptA.003.012.data
(PID.TID 0000.0001)  MDS_READ_SEC_XZ: opening file: pickup_orlanskiS.ckptA.004.012.data
(PID.TID 0000.0001)  MDS_READ_SEC_XZ: opening file: pickup_orlanskiS.ckptA.005.012.data
(PID.TID 0000.0001)  MDS_READ_SEC_XZ: opening file: pickup_orlanskiS.ckptA.006.012.data
(PID.TID 0000.0001)  MDS_READ_SEC_XZ: opening file: pickup_orlanskiS.ckptA.007.012.data
(PID.TID 0000.0001)  MDS_READ_SEC_XZ: opening file: pickup_orlanskiS.ckptA.008.012.data
(PID.TID 0000.0001)  MDS_READ_SEC_XZ: opening file: pickup_orlanskiS.ckptA.009.012.data
(PID.TID 0000.0001)  MDS_READ_SEC_XZ: opening file: pickup_orlanskiS.ckptA.010.012.data
(PID.TID 0000.0001)  MDS_READ_SEC_XZ: opening file: pickup_orlanskiS.ckptA.011.012.data
(PID.TID 0000.0001)  MDS_READ_SEC_XZ: opening file: pickup_orlanskiS.ckptA.012.012.data
(PID.TID 0000.0001)  MDS_READ_SEC_XZ: opening file: pickup_orlanskiS.ckptA.013.012.data
(PID.TID 0000.0001)  MDS_READ_SEC_XZ: opening file: pickup_orlanskiS.ckptA.014.012.data
(PID.TID 0000.0001)  MDS_READ_SEC_XZ: opening file: pickup_orlanskiS.ckptA.015.012.data
(PID.TID 0000.0001)  MDS_READ_SEC_XZ: opening file: pickup_orlanskiS.ckptA.001.013.data
(PID.TID 0000.0001)  MDS_READ_SEC_XZ: opening file: pickup_orlanskiS.ckptA.002.013.data
(PID.TID 0000.0001)  MDS_READ_SEC_XZ: opening file: pickup_orlanskiS.ckptA.003.013.data
(PID.TID 0000.0001)  MDS_READ_SEC_XZ: opening file: pickup_orlanskiS.ckptA.004.013.data
(PID.TID 0000.0001)  MDS_READ_SEC_XZ: opening file: pickup_orlanskiS.ckptA.005.013.data
(PID.TID 0000.0001)  MDS_READ_SEC_XZ: opening file: pickup_orlanskiS.ckptA.006.013.data
(PID.TID 0000.0001)  MDS_READ_SEC_XZ: opening file: pickup_orlanskiS.ckptA.007.013.data
(PID.TID 0000.0001)  MDS_READ_SEC_XZ: opening file: pickup_orlanskiS.ckptA.008.013.data
(PID.TID 0000.0001)  MDS_READ_SEC_XZ: opening file: pickup_orlanskiS.ckptA.009.013.data
(PID.TID 0000.0001)  MDS_READ_SEC_XZ: opening file: pickup_orlanskiS.ckptA.010.013.data
(PID.TID 0000.0001)  MDS_READ_SEC_XZ: opening file: pickup_orlanskiS.ckptA.011.013.data
(PID.TID 0000.0001)  MDS_READ_SEC_XZ: opening file: pickup_orlanskiS.ckptA.012.013.data
(PID.TID 0000.0001)  MDS_READ_SEC_XZ: opening file: pickup_orlanskiS.ckptA.013.013.data
(PID.TID 0000.0001)  MDS_READ_SEC_XZ: opening file: pickup_orlanskiS.ckptA.014.013.data
(PID.TID 0000.0001)  MDS_READ_SEC_XZ: opening file: pickup_orlanskiS.ckptA.015.013.data
(PID.TID 0000.0001)  MDS_READ_SEC_XZ: opening file: pickup_orlanskiS.ckptA.001.014.data
(PID.TID 0000.0001)  MDS_READ_SEC_XZ: opening file: pickup_orlanskiS.ckptA.002.014.data
(PID.TID 0000.0001)  MDS_READ_SEC_XZ: opening file: pickup_orlanskiS.ckptA.003.014.data
(PID.TID 0000.0001)  MDS_READ_SEC_XZ: opening file: pickup_orlanskiS.ckptA.004.014.data
(PID.TID 0000.0001)  MDS_READ_SEC_XZ: opening file: pickup_orlanskiS.ckptA.005.014.data
(PID.TID 0000.0001)  MDS_READ_SEC_XZ: opening file: pickup_orlanskiS.ckptA.006.014.data
(PID.TID 0000.0001)  MDS_READ_SEC_XZ: opening file: pickup_orlanskiS.ckptA.007.014.data
(PID.TID 0000.0001)  MDS_READ_SEC_XZ: opening file: pickup_orlanskiS.ckptA.008.014.data
(PID.TID 0000.0001)  MDS_READ_SEC_XZ: opening file: pickup_orlanskiS.ckptA.009.014.data
(PID.TID 0000.0001)  MDS_READ_SEC_XZ: opening file: pickup_orlanskiS.ckptA.010.014.data
(PID.TID 0000.0001)  MDS_READ_SEC_XZ: opening file: pickup_orlanskiS.ckptA.011.014.data
(PID.TID 0000.0001)  MDS_READ_SEC_XZ: opening file: pickup_orlanskiS.ckptA.012.014.data
(PID.TID 0000.0001)  MDS_READ_SEC_XZ: opening file: pickup_orlanskiS.ckptA.013.014.data
(PID.TID 0000.0001)  MDS_READ_SEC_XZ: opening file: pickup_orlanskiS.ckptA.014.014.data
(PID.TID 0000.0001)  MDS_READ_SEC_XZ: opening file: pickup_orlanskiS.ckptA.015.014.data
(PID.TID 0000.0001)  MDS_READ_SEC_XZ: opening file: pickup_orlanskiS.ckptA.001.015.data
(PID.TID 0000.0001)  MDS_READ_SEC_XZ: opening file: pickup_orlanskiS.ckptA.002.015.data
(PID.TID 0000.0001)  MDS_READ_SEC_XZ: opening file: pickup_orlanskiS.ckptA.003.015.data
(PID.TID 0000.0001)  MDS_READ_SEC_XZ: opening file: pickup_orlanskiS.ckptA.004.015.data
(PID.TID 0000.0001)  MDS_READ_SEC_XZ: opening file: pickup_orlanskiS.ckptA.005.015.data
(PID.TID 0000.0001)  MDS_READ_SEC_XZ: opening file: pickup_orlanskiS.ckptA.006.015.data
(PID.TID 0000.0001)  MDS_READ_SEC_XZ: opening file: pickup_orlanskiS.ckptA.007.015.data
(PID.TID 0000.0001)  MDS_READ_SEC_XZ: opening file: pickup_orlanskiS.ckptA.008.015.data
(PID.TID 0000.0001)  MDS_READ_SEC_XZ: opening file: pickup_orlanskiS.ckptA.009.015.data
(PID.TID 0000.0001)  MDS_READ_SEC_XZ: opening file: pickup_orlanskiS.ckptA.010.015.data
(PID.TID 0000.0001)  MDS_READ_SEC_XZ: opening file: pickup_orlanskiS.ckptA.011.015.data
(PID.TID 0000.0001)  MDS_READ_SEC_XZ: opening file: pickup_orlanskiS.ckptA.012.015.data
(PID.TID 0000.0001)  MDS_READ_SEC_XZ: opening file: pickup_orlanskiS.ckptA.013.015.data
(PID.TID 0000.0001)  MDS_READ_SEC_XZ: opening file: pickup_orlanskiS.ckptA.014.015.data
(PID.TID 0000.0001)  MDS_READ_SEC_XZ: opening file: pickup_orlanskiS.ckptA.015.015.data
(PID.TID 0000.0001)  MDS_READ_SEC_XZ: opening file: pickup_orlanskiS.ckptA.001.001.data
(PID.TID 0000.0001)  MDS_READ_SEC_XZ: opening file: pickup_orlanskiS.ckptA.002.001.data
(PID.TID 0000.0001)  MDS_READ_SEC_XZ: opening file: pickup_orlanskiS.ckptA.003.001.data
(PID.TID 0000.0001)  MDS_READ_SEC_XZ: opening file: pickup_orlanskiS.ckptA.004.001.data
(PID.TID 0000.0001)  MDS_READ_SEC_XZ: opening file: pickup_orlanskiS.ckptA.005.001.data
(PID.TID 0000.0001)  MDS_READ_SEC_XZ: opening file: pickup_orlanskiS.ckptA.006.001.data
(PID.TID 0000.0001)  MDS_READ_SEC_XZ: opening file: pickup_orlanskiS.ckptA.007.001.data
(PID.TID 0000.0001)  MDS_READ_SEC_XZ: opening file: pickup_orlanskiS.ckptA.008.001.data
(PID.TID 0000.0001)  MDS_READ_SEC_XZ: opening file: pickup_orlanskiS.ckptA.009.001.data
(PID.TID 0000.0001)  MDS_READ_SEC_XZ: opening file: pickup_orlanskiS.ckptA.010.001.data
(PID.TID 0000.0001)  MDS_READ_SEC_XZ: opening file: pickup_orlanskiS.ckptA.011.001.data
(PID.TID 0000.0001)  MDS_READ_SEC_XZ: opening file: pickup_orlanskiS.ckptA.012.001.data
(PID.TID 0000.0001)  MDS_READ_SEC_XZ: opening file: pickup_orlanskiS.ckptA.013.001.data
(PID.TID 0000.0001)  MDS_READ_SEC_XZ: opening file: pickup_orlanskiS.ckptA.014.001.data
(PID.TID 0000.0001)  MDS_READ_SEC_XZ: opening file: pickup_orlanskiS.ckptA.015.001.data
(PID.TID 0000.0001)  MDS_READ_SEC_XZ: opening file: pickup_orlanskiS.ckptA.001.002.data
(PID.TID 0000.0001)  MDS_READ_SEC_XZ: opening file: pickup_orlanskiS.ckptA.002.002.data
(PID.TID 0000.0001)  MDS_READ_SEC_XZ: opening file: pickup_orlanskiS.ckptA.003.002.data
(PID.TID 0000.0001)  MDS_READ_SEC_XZ: opening file: pickup_orlanskiS.ckptA.004.002.data
(PID.TID 0000.0001)  MDS_READ_SEC_XZ: opening file: pickup_orlanskiS.ckptA.005.002.data
(PID.TID 0000.0001)  MDS_READ_SEC_XZ: opening file: pickup_orlanskiS.ckptA.006.002.data
(PID.TID 0000.0001)  MDS_READ_SEC_XZ: opening file: pickup_orlanskiS.ckptA.007.002.data
(PID.TID 0000.0001)  MDS_READ_SEC_XZ: opening file: pickup_orlanskiS.ckptA.008.002.data
(PID.TID 0000.0001)  MDS_READ_SEC_XZ: opening file: pickup_orlanskiS.ckptA.009.002.data
(PID.TID 0000.0001)  MDS_READ_SEC_XZ: opening file: pickup_orlanskiS.ckptA.010.002.data
(PID.TID 0000.0001)  MDS_READ_SEC_XZ: opening file: pickup_orlanskiS.ckptA.011.002.data
(PID.TID 0000.0001)  MDS_READ_SEC_XZ: opening file: pickup_orlanskiS.ckptA.012.002.data
(PID.TID 0000.0001)  MDS_READ_SEC_XZ: opening file: pickup_orlanskiS.ckptA.013.002.data
(PID.TID 0000.0001)  MDS_READ_SEC_XZ: opening file: pickup_orlanskiS.ckptA.014.002.data
(PID.TID 0000.0001)  MDS_READ_SEC_XZ: opening file: pickup_orlanskiS.ckptA.015.002.data
(PID.TID 0000.0001)  MDS_READ_SEC_XZ: opening file: pickup_orlanskiS.ckptA.001.003.data
(PID.TID 0000.0001)  MDS_READ_SEC_XZ: opening file: pickup_orlanskiS.ckptA.002.003.data
(PID.TID 0000.0001)  MDS_READ_SEC_XZ: opening file: pickup_orlanskiS.ckptA.003.003.data
(PID.TID 0000.0001)  MDS_READ_SEC_XZ: opening file: pickup_orlanskiS.ckptA.004.003.data
(PID.TID 0000.0001)  MDS_READ_SEC_XZ: opening file: pickup_orlanskiS.ckptA.005.003.data
(PID.TID 0000.0001)  MDS_READ_SEC_XZ: opening file: pickup_orlanskiS.ckptA.006.003.data
(PID.TID 0000.0001)  MDS_READ_SEC_XZ: opening file: pickup_orlanskiS.ckptA.007.003.data
(PID.TID 0000.0001)  MDS_READ_SEC_XZ: opening file: pickup_orlanskiS.ckptA.008.003.data
(PID.TID 0000.0001)  MDS_READ_SEC_XZ: opening file: pickup_orlanskiS.ckptA.009.003.data
(PID.TID 0000.0001)  MDS_READ_SEC_XZ: opening file: pickup_orlanskiS.ckptA.010.003.data
(PID.TID 0000.0001)  MDS_READ_SEC_XZ: opening file: pickup_orlanskiS.ckptA.011.003.data
(PID.TID 0000.0001)  MDS_READ_SEC_XZ: opening file: pickup_orlanskiS.ckptA.012.003.data
(PID.TID 0000.0001)  MDS_READ_SEC_XZ: opening file: pickup_orlanskiS.ckptA.013.003.data
(PID.TID 0000.0001)  MDS_READ_SEC_XZ: opening file: pickup_orlanskiS.ckptA.014.003.data
(PID.TID 0000.0001)  MDS_READ_SEC_XZ: opening file: pickup_orlanskiS.ckptA.015.003.data
(PID.TID 0000.0001)  MDS_READ_SEC_XZ: opening file: pickup_orlanskiS.ckptA.001.004.data
(PID.TID 0000.0001)  MDS_READ_SEC_XZ: opening file: pickup_orlanskiS.ckptA.002.004.data
(PID.TID 0000.0001)  MDS_READ_SEC_XZ: opening file: pickup_orlanskiS.ckptA.003.004.data
(PID.TID 0000.0001)  MDS_READ_SEC_XZ: opening file: pickup_orlanskiS.ckptA.004.004.data
(PID.TID 0000.0001)  MDS_READ_SEC_XZ: opening file: pickup_orlanskiS.ckptA.005.004.data
(PID.TID 0000.0001)  MDS_READ_SEC_XZ: opening file: pickup_orlanskiS.ckptA.006.004.data
(PID.TID 0000.0001)  MDS_READ_SEC_XZ: opening file: pickup_orlanskiS.ckptA.007.004.data
(PID.TID 0000.0001)  MDS_READ_SEC_XZ: opening file: pickup_orlanskiS.ckptA.008.004.data
(PID.TID 0000.0001)  MDS_READ_SEC_XZ: opening file: pickup_orlanskiS.ckptA.009.004.data
(PID.TID 0000.0001)  MDS_READ_SEC_XZ: opening file: pickup_orlanskiS.ckptA.010.004.data
(PID.TID 0000.0001)  MDS_READ_SEC_XZ: opening file: pickup_orlanskiS.ckptA.011.004.data
(PID.TID 0000.0001)  MDS_READ_SEC_XZ: opening file: pickup_orlanskiS.ckptA.012.004.data
(PID.TID 0000.0001)  MDS_READ_SEC_XZ: opening file: pickup_orlanskiS.ckptA.013.004.data
(PID.TID 0000.0001)  MDS_READ_SEC_XZ: opening file: pickup_orlanskiS.ckptA.014.004.data
(PID.TID 0000.0001)  MDS_READ_SEC_XZ: opening file: pickup_orlanskiS.ckptA.015.004.data
(PID.TID 0000.0001)  MDS_READ_SEC_XZ: opening file: pickup_orlanskiS.ckptA.001.005.data
(PID.TID 0000.0001)  MDS_READ_SEC_XZ: opening file: pickup_orlanskiS.ckptA.002.005.data
(PID.TID 0000.0001)  MDS_READ_SEC_XZ: opening file: pickup_orlanskiS.ckptA.003.005.data
(PID.TID 0000.0001)  MDS_READ_SEC_XZ: opening file: pickup_orlanskiS.ckptA.004.005.data
(PID.TID 0000.0001)  MDS_READ_SEC_XZ: opening file: pickup_orlanskiS.ckptA.005.005.data
(PID.TID 0000.0001)  MDS_READ_SEC_XZ: opening file: pickup_orlanskiS.ckptA.006.005.data
(PID.TID 0000.0001)  MDS_READ_SEC_XZ: opening file: pickup_orlanskiS.ckptA.007.005.data
(PID.TID 0000.0001)  MDS_READ_SEC_XZ: opening file: pickup_orlanskiS.ckptA.008.005.data
(PID.TID 0000.0001)  MDS_READ_SEC_XZ: opening file: pickup_orlanskiS.ckptA.009.005.data
(PID.TID 0000.0001)  MDS_READ_SEC_XZ: opening file: pickup_orlanskiS.ckptA.010.005.data
(PID.TID 0000.0001)  MDS_READ_SEC_XZ: opening file: pickup_orlanskiS.ckptA.011.005.data
(PID.TID 0000.0001)  MDS_READ_SEC_XZ: opening file: pickup_orlanskiS.ckptA.012.005.data
(PID.TID 0000.0001)  MDS_READ_SEC_XZ: opening file: pickup_orlanskiS.ckptA.013.005.data
(PID.TID 0000.0001)  MDS_READ_SEC_XZ: opening file: pickup_orlanskiS.ckptA.014.005.data
(PID.TID 0000.0001)  MDS_READ_SEC_XZ: opening file: pickup_orlanskiS.ckptA.015.005.data
(PID.TID 0000.0001)  MDS_READ_SEC_XZ: opening file: pickup_orlanskiS.ckptA.001.006.data
(PID.TID 0000.0001)  MDS_READ_SEC_XZ: opening file: pickup_orlanskiS.ckptA.002.006.data
(PID.TID 0000.0001)  MDS_READ_SEC_XZ: opening file: pickup_orlanskiS.ckptA.003.006.data
(PID.TID 0000.0001)  MDS_READ_SEC_XZ: opening file: pickup_orlanskiS.ckptA.004.006.data
(PID.TID 0000.0001)  MDS_READ_SEC_XZ: opening file: pickup_orlanskiS.ckptA.005.006.data
(PID.TID 0000.0001)  MDS_READ_SEC_XZ: opening file: pickup_orlanskiS.ckptA.006.006.data
(PID.TID 0000.0001)  MDS_READ_SEC_XZ: opening file: pickup_orlanskiS.ckptA.007.006.data
(PID.TID 0000.0001)  MDS_READ_SEC_XZ: opening file: pickup_orlanskiS.ckptA.008.006.data
(PID.TID 0000.0001)  MDS_READ_SEC_XZ: opening file: pickup_orlanskiS.ckptA.009.006.data
(PID.TID 0000.0001)  MDS_READ_SEC_XZ: opening file: pickup_orlanskiS.ckptA.010.006.data
(PID.TID 0000.0001)  MDS_READ_SEC_XZ: opening file: pickup_orlanskiS.ckptA.011.006.data
(PID.TID 0000.0001)  MDS_READ_SEC_XZ: opening file: pickup_orlanskiS.ckptA.012.006.data
(PID.TID 0000.0001)  MDS_READ_SEC_XZ: opening file: pickup_orlanskiS.ckptA.013.006.data
(PID.TID 0000.0001)  MDS_READ_SEC_XZ: opening file: pickup_orlanskiS.ckptA.014.006.data
(PID.TID 0000.0001)  MDS_READ_SEC_XZ: opening file: pickup_orlanskiS.ckptA.015.006.data
(PID.TID 0000.0001)  MDS_READ_SEC_XZ: opening file: pickup_orlanskiS.ckptA.001.007.data
(PID.TID 0000.0001)  MDS_READ_SEC_XZ: opening file: pickup_orlanskiS.ckptA.002.007.data
(PID.TID 0000.0001)  MDS_READ_SEC_XZ: opening file: pickup_orlanskiS.ckptA.003.007.data
(PID.TID 0000.0001)  MDS_READ_SEC_XZ: opening file: pickup_orlanskiS.ckptA.004.007.data
(PID.TID 0000.0001)  MDS_READ_SEC_XZ: opening file: pickup_orlanskiS.ckptA.005.007.data
(PID.TID 0000.0001)  MDS_READ_SEC_XZ: opening file: pickup_orlanskiS.ckptA.006.007.data
(PID.TID 0000.0001)  MDS_READ_SEC_XZ: opening file: pickup_orlanskiS.ckptA.007.007.data
(PID.TID 0000.0001)  MDS_READ_SEC_XZ: opening file: pickup_orlanskiS.ckptA.008.007.data
(PID.TID 0000.0001)  MDS_READ_SEC_XZ: opening file: pickup_orlanskiS.ckptA.009.007.data
(PID.TID 0000.0001)  MDS_READ_SEC_XZ: opening file: pickup_orlanskiS.ckptA.010.007.data
(PID.TID 0000.0001)  MDS_READ_SEC_XZ: opening file: pickup_orlanskiS.ckptA.011.007.data
(PID.TID 0000.0001)  MDS_READ_SEC_XZ: opening file: pickup_orlanskiS.ckptA.012.007.data
(PID.TID 0000.0001)  MDS_READ_SEC_XZ: opening file: pickup_orlanskiS.ckptA.013.007.data
(PID.TID 0000.0001)  MDS_READ_SEC_XZ: opening file: pickup_orlanskiS.ckptA.014.007.data
(PID.TID 0000.0001)  MDS_READ_SEC_XZ: opening file: pickup_orlanskiS.ckptA.015.007.data
(PID.TID 0000.0001)  MDS_READ_SEC_XZ: opening file: pickup_orlanskiS.ckptA.001.008.data
(PID.TID 0000.0001)  MDS_READ_SEC_XZ: opening file: pickup_orlanskiS.ckptA.002.008.data
(PID.TID 0000.0001)  MDS_READ_SEC_XZ: opening file: pickup_orlanskiS.ckptA.003.008.data
(PID.TID 0000.0001)  MDS_READ_SEC_XZ: opening file: pickup_orlanskiS.ckptA.004.008.data
(PID.TID 0000.0001)  MDS_READ_SEC_XZ: opening file: pickup_orlanskiS.ckptA.005.008.data
(PID.TID 0000.0001)  MDS_READ_SEC_XZ: opening file: pickup_orlanskiS.ckptA.006.008.data
(PID.TID 0000.0001)  MDS_READ_SEC_XZ: opening file: pickup_orlanskiS.ckptA.007.008.data
(PID.TID 0000.0001)  MDS_READ_SEC_XZ: opening file: pickup_orlanskiS.ckptA.008.008.data
(PID.TID 0000.0001)  MDS_READ_SEC_XZ: opening file: pickup_orlanskiS.ckptA.009.008.data
(PID.TID 0000.0001)  MDS_READ_SEC_XZ: opening file: pickup_orlanskiS.ckptA.010.008.data
(PID.TID 0000.0001)  MDS_READ_SEC_XZ: opening file: pickup_orlanskiS.ckptA.011.008.data
(PID.TID 0000.0001)  MDS_READ_SEC_XZ: opening file: pickup_orlanskiS.ckptA.012.008.data
(PID.TID 0000.0001)  MDS_READ_SEC_XZ: opening file: pickup_orlanskiS.ckptA.013.008.data
(PID.TID 0000.0001)  MDS_READ_SEC_XZ: opening file: pickup_orlanskiS.ckptA.014.008.data
(PID.TID 0000.0001)  MDS_READ_SEC_XZ: opening file: pickup_orlanskiS.ckptA.015.008.data
(PID.TID 0000.0001)  MDS_READ_SEC_XZ: opening file: pickup_orlanskiS.ckptA.001.009.data
(PID.TID 0000.0001)  MDS_READ_SEC_XZ: opening file: pickup_orlanskiS.ckptA.002.009.data
(PID.TID 0000.0001)  MDS_READ_SEC_XZ: opening file: pickup_orlanskiS.ckptA.003.009.data
(PID.TID 0000.0001)  MDS_READ_SEC_XZ: opening file: pickup_orlanskiS.ckptA.004.009.data
(PID.TID 0000.0001)  MDS_READ_SEC_XZ: opening file: pickup_orlanskiS.ckptA.005.009.data
(PID.TID 0000.0001)  MDS_READ_SEC_XZ: opening file: pickup_orlanskiS.ckptA.006.009.data
(PID.TID 0000.0001)  MDS_READ_SEC_XZ: opening file: pickup_orlanskiS.ckptA.007.009.data
(PID.TID 0000.0001)  MDS_READ_SEC_XZ: opening file: pickup_orlanskiS.ckptA.008.009.data
(PID.TID 0000.0001)  MDS_READ_SEC_XZ: opening file: pickup_orlanskiS.ckptA.009.009.data
(PID.TID 0000.0001)  MDS_READ_SEC_XZ: opening file: pickup_orlanskiS.ckptA.010.009.data
(PID.TID 0000.0001)  MDS_READ_SEC_XZ: opening file: pickup_orlanskiS.ckptA.011.009.data
(PID.TID 0000.0001)  MDS_READ_SEC_XZ: opening file: pickup_orlanskiS.ckptA.012.009.data
(PID.TID 0000.0001)  MDS_READ_SEC_XZ: opening file: pickup_orlanskiS.ckptA.013.009.data
(PID.TID 0000.0001)  MDS_READ_SEC_XZ: opening file: pickup_orlanskiS.ckptA.014.009.data
(PID.TID 0000.0001)  MDS_READ_SEC_XZ: opening file: pickup_orlanskiS.ckptA.015.009.data
(PID.TID 0000.0001)  MDS_READ_SEC_XZ: opening file: pickup_orlanskiS.ckptA.001.010.data
(PID.TID 0000.0001)  MDS_READ_SEC_XZ: opening file: pickup_orlanskiS.ckptA.002.010.data
(PID.TID 0000.0001)  MDS_READ_SEC_XZ: opening file: pickup_orlanskiS.ckptA.003.010.data
(PID.TID 0000.0001)  MDS_READ_SEC_XZ: opening file: pickup_orlanskiS.ckptA.004.010.data
(PID.TID 0000.0001)  MDS_READ_SEC_XZ: opening file: pickup_orlanskiS.ckptA.005.010.data
(PID.TID 0000.0001)  MDS_READ_SEC_XZ: opening file: pickup_orlanskiS.ckptA.006.010.data
(PID.TID 0000.0001)  MDS_READ_SEC_XZ: opening file: pickup_orlanskiS.ckptA.007.010.data
(PID.TID 0000.0001)  MDS_READ_SEC_XZ: opening file: pickup_orlanskiS.ckptA.008.010.data
(PID.TID 0000.0001)  MDS_READ_SEC_XZ: opening file: pickup_orlanskiS.ckptA.009.010.data
(PID.TID 0000.0001)  MDS_READ_SEC_XZ: opening file: pickup_orlanskiS.ckptA.010.010.data
(PID.TID 0000.0001)  MDS_READ_SEC_XZ: opening file: pickup_orlanskiS.ckptA.011.010.data
(PID.TID 0000.0001)  MDS_READ_SEC_XZ: opening file: pickup_orlanskiS.ckptA.012.010.data
(PID.TID 0000.0001)  MDS_READ_SEC_XZ: opening file: pickup_orlanskiS.ckptA.013.010.data
(PID.TID 0000.0001)  MDS_READ_SEC_XZ: opening file: pickup_orlanskiS.ckptA.014.010.data
(PID.TID 0000.0001)  MDS_READ_SEC_XZ: opening file: pickup_orlanskiS.ckptA.015.010.data
(PID.TID 0000.0001)  MDS_READ_SEC_XZ: opening file: pickup_orlanskiS.ckptA.001.011.data
(PID.TID 0000.0001)  MDS_READ_SEC_XZ: opening file: pickup_orlanskiS.ckptA.002.011.data
(PID.TID 0000.0001)  MDS_READ_SEC_XZ: opening file: pickup_orlanskiS.ckptA.003.011.data
(PID.TID 0000.0001)  MDS_READ_SEC_XZ: opening file: pickup_orlanskiS.ckptA.004.011.data
(PID.TID 0000.0001)  MDS_READ_SEC_XZ: opening file: pickup_orlanskiS.ckptA.005.011.data
(PID.TID 0000.0001)  MDS_READ_SEC_XZ: opening file: pickup_orlanskiS.ckptA.006.011.data
(PID.TID 0000.0001)  MDS_READ_SEC_XZ: opening file: pickup_orlanskiS.ckptA.007.011.data
(PID.TID 0000.0001)  MDS_READ_SEC_XZ: opening file: pickup_orlanskiS.ckptA.008.011.data
(PID.TID 0000.0001)  MDS_READ_SEC_XZ: opening file: pickup_orlanskiS.ckptA.009.011.data
(PID.TID 0000.0001)  MDS_READ_SEC_XZ: opening file: pickup_orlanskiS.ckptA.010.011.data
(PID.TID 0000.0001)  MDS_READ_SEC_XZ: opening file: pickup_orlanskiS.ckptA.011.011.data
(PID.TID 0000.0001)  MDS_READ_SEC_XZ: opening file: pickup_orlanskiS.ckptA.012.011.data
(PID.TID 0000.0001)  MDS_READ_SEC_XZ: opening file: pickup_orlanskiS.ckptA.013.011.data
(PID.TID 0000.0001)  MDS_READ_SEC_XZ: opening file: pickup_orlanskiS.ckptA.014.011.data
(PID.TID 0000.0001)  MDS_READ_SEC_XZ: opening file: pickup_orlanskiS.ckptA.015.011.data
(PID.TID 0000.0001)  MDS_READ_SEC_XZ: opening file: pickup_orlanskiS.ckptA.001.012.data
(PID.TID 0000.0001)  MDS_READ_SEC_XZ: opening file: pickup_orlanskiS.ckptA.002.012.data
(PID.TID 0000.0001)  MDS_READ_SEC_XZ: opening file: pickup_orlanskiS.ckptA.003.012.data
(PID.TID 0000.0001)  MDS_READ_SEC_XZ: opening file: pickup_orlanskiS.ckptA.004.012.data
(PID.TID 0000.0001)  MDS_READ_SEC_XZ: opening file: pickup_orlanskiS.ckptA.005.012.data
(PID.TID 0000.0001)  MDS_READ_SEC_XZ: opening file: pickup_orlanskiS.ckptA.006.012.data
(PID.TID 0000.0001)  MDS_READ_SEC_XZ: opening file: pickup_orlanskiS.ckptA.007.012.data
(PID.TID 0000.0001)  MDS_READ_SEC_XZ: opening file: pickup_orlanskiS.ckptA.008.012.data
(PID.TID 0000.0001)  MDS_READ_SEC_XZ: opening file: pickup_orlanskiS.ckptA.009.012.data
(PID.TID 0000.0001)  MDS_READ_SEC_XZ: opening file: pickup_orlanskiS.ckptA.010.012.data
(PID.TID 0000.0001)  MDS_READ_SEC_XZ: opening file: pickup_orlanskiS.ckptA.011.012.data
(PID.TID 0000.0001)  MDS_READ_SEC_XZ: opening file: pickup_orlanskiS.ckptA.012.012.data
(PID.TID 0000.0001)  MDS_READ_SEC_XZ: opening file: pickup_orlanskiS.ckptA.013.012.data
(PID.TID 0000.0001)  MDS_READ_SEC_XZ: opening file: pickup_orlanskiS.ckptA.014.012.data
(PID.TID 0000.0001)  MDS_READ_SEC_XZ: opening file: pickup_orlanskiS.ckptA.015.012.data
(PID.TID 0000.0001)  MDS_READ_SEC_XZ: opening file: pickup_orlanskiS.ckptA.001.013.data
(PID.TID 0000.0001)  MDS_READ_SEC_XZ: opening file: pickup_orlanskiS.ckptA.002.013.data
(PID.TID 0000.0001)  MDS_READ_SEC_XZ: opening file: pickup_orlanskiS.ckptA.003.013.data
(PID.TID 0000.0001)  MDS_READ_SEC_XZ: opening file: pickup_orlanskiS.ckptA.004.013.data
(PID.TID 0000.0001)  MDS_READ_SEC_XZ: opening file: pickup_orlanskiS.ckptA.005.013.data
(PID.TID 0000.0001)  MDS_READ_SEC_XZ: opening file: pickup_orlanskiS.ckptA.006.013.data
(PID.TID 0000.0001)  MDS_READ_SEC_XZ: opening file: pickup_orlanskiS.ckptA.007.013.data
(PID.TID 0000.0001)  MDS_READ_SEC_XZ: opening file: pickup_orlanskiS.ckptA.008.013.data
(PID.TID 0000.0001)  MDS_READ_SEC_XZ: opening file: pickup_orlanskiS.ckptA.009.013.data
(PID.TID 0000.0001)  MDS_READ_SEC_XZ: opening file: pickup_orlanskiS.ckptA.010.013.data
(PID.TID 0000.0001)  MDS_READ_SEC_XZ: opening file: pickup_orlanskiS.ckptA.011.013.data
(PID.TID 0000.0001)  MDS_READ_SEC_XZ: opening file: pickup_orlanskiS.ckptA.012.013.data
(PID.TID 0000.0001)  MDS_READ_SEC_XZ: opening file: pickup_orlanskiS.ckptA.013.013.data
(PID.TID 0000.0001)  MDS_READ_SEC_XZ: opening file: pickup_orlanskiS.ckptA.014.013.data
(PID.TID 0000.0001)  MDS_READ_SEC_XZ: opening file: pickup_orlanskiS.ckptA.015.013.data
(PID.TID 0000.0001)  MDS_READ_SEC_XZ: opening file: pickup_orlanskiS.ckptA.001.014.data
(PID.TID 0000.0001)  MDS_READ_SEC_XZ: opening file: pickup_orlanskiS.ckptA.002.014.data
(PID.TID 0000.0001)  MDS_READ_SEC_XZ: opening file: pickup_orlanskiS.ckptA.003.014.data
(PID.TID 0000.0001)  MDS_READ_SEC_XZ: opening file: pickup_orlanskiS.ckptA.004.014.data
(PID.TID 0000.0001)  MDS_READ_SEC_XZ: opening file: pickup_orlanskiS.ckptA.005.014.data
(PID.TID 0000.0001)  MDS_READ_SEC_XZ: opening file: pickup_orlanskiS.ckptA.006.014.data
(PID.TID 0000.0001)  MDS_READ_SEC_XZ: opening file: pickup_orlanskiS.ckptA.007.014.data
(PID.TID 0000.0001)  MDS_READ_SEC_XZ: opening file: pickup_orlanskiS.ckptA.008.014.data
(PID.TID 0000.0001)  MDS_READ_SEC_XZ: opening file: pickup_orlanskiS.ckptA.009.014.data
(PID.TID 0000.0001)  MDS_READ_SEC_XZ: opening file: pickup_orlanskiS.ckptA.010.014.data
(PID.TID 0000.0001)  MDS_READ_SEC_XZ: opening file: pickup_orlanskiS.ckptA.011.014.data
(PID.TID 0000.0001)  MDS_READ_SEC_XZ: opening file: pickup_orlanskiS.ckptA.012.014.data
(PID.TID 0000.0001)  MDS_READ_SEC_XZ: opening file: pickup_orlanskiS.ckptA.013.014.data
(PID.TID 0000.0001)  MDS_READ_SEC_XZ: opening file: pickup_orlanskiS.ckptA.014.014.data
(PID.TID 0000.0001)  MDS_READ_SEC_XZ: opening file: pickup_orlanskiS.ckptA.015.014.data
(PID.TID 0000.0001)  MDS_READ_SEC_XZ: opening file: pickup_orlanskiS.ckptA.001.015.data
(PID.TID 0000.0001)  MDS_READ_SEC_XZ: opening file: pickup_orlanskiS.ckptA.002.015.data
(PID.TID 0000.0001)  MDS_READ_SEC_XZ: opening file: pickup_orlanskiS.ckptA.003.015.data
(PID.TID 0000.0001)  MDS_READ_SEC_XZ: opening file: pickup_orlanskiS.ckptA.004.015.data
(PID.TID 0000.0001)  MDS_READ_SEC_XZ: opening file: pickup_orlanskiS.ckptA.005.015.data
(PID.TID 0000.0001)  MDS_READ_SEC_XZ: opening file: pickup_orlanskiS.ckptA.006.015.data
(PID.TID 0000.0001)  MDS_READ_SEC_XZ: opening file: pickup_orlanskiS.ckptA.007.015.data
(PID.TID 0000.0001)  MDS_READ_SEC_XZ: opening file: pickup_orlanskiS.ckptA.008.015.data
(PID.TID 0000.0001)  MDS_READ_SEC_XZ: opening file: pickup_orlanskiS.ckptA.009.015.data
(PID.TID 0000.0001)  MDS_READ_SEC_XZ: opening file: pickup_orlanskiS.ckptA.010.015.data
(PID.TID 0000.0001)  MDS_READ_SEC_XZ: opening file: pickup_orlanskiS.ckptA.011.015.data
(PID.TID 0000.0001)  MDS_READ_SEC_XZ: opening file: pickup_orlanskiS.ckptA.012.015.data
(PID.TID 0000.0001)  MDS_READ_SEC_XZ: opening file: pickup_orlanskiS.ckptA.013.015.data
(PID.TID 0000.0001)  MDS_READ_SEC_XZ: opening file: pickup_orlanskiS.ckptA.014.015.data
(PID.TID 0000.0001)  MDS_READ_SEC_XZ: opening file: pickup_orlanskiS.ckptA.015.015.data
(PID.TID 0000.0001)  MDS_READ_SEC_XZ: opening file: pickup_orlanskiS.ckptA.001.001.data
(PID.TID 0000.0001)  MDS_READ_SEC_XZ: opening file: pickup_orlanskiS.ckptA.002.001.data
(PID.TID 0000.0001)  MDS_READ_SEC_XZ: opening file: pickup_orlanskiS.ckptA.003.001.data
(PID.TID 0000.0001)  MDS_READ_SEC_XZ: opening file: pickup_orlanskiS.ckptA.004.001.data
(PID.TID 0000.0001)  MDS_READ_SEC_XZ: opening file: pickup_orlanskiS.ckptA.005.001.data
(PID.TID 0000.0001)  MDS_READ_SEC_XZ: opening file: pickup_orlanskiS.ckptA.006.001.data
(PID.TID 0000.0001)  MDS_READ_SEC_XZ: opening file: pickup_orlanskiS.ckptA.007.001.data
(PID.TID 0000.0001)  MDS_READ_SEC_XZ: opening file: pickup_orlanskiS.ckptA.008.001.data
(PID.TID 0000.0001)  MDS_READ_SEC_XZ: opening file: pickup_orlanskiS.ckptA.009.001.data
(PID.TID 0000.0001)  MDS_READ_SEC_XZ: opening file: pickup_orlanskiS.ckptA.010.001.data
(PID.TID 0000.0001)  MDS_READ_SEC_XZ: opening file: pickup_orlanskiS.ckptA.011.001.data
(PID.TID 0000.0001)  MDS_READ_SEC_XZ: opening file: pickup_orlanskiS.ckptA.012.001.data
(PID.TID 0000.0001)  MDS_READ_SEC_XZ: opening file: pickup_orlanskiS.ckptA.013.001.data
(PID.TID 0000.0001)  MDS_READ_SEC_XZ: opening file: pickup_orlanskiS.ckptA.014.001.data
(PID.TID 0000.0001)  MDS_READ_SEC_XZ: opening file: pickup_orlanskiS.ckptA.015.001.data
(PID.TID 0000.0001)  MDS_READ_SEC_XZ: opening file: pickup_orlanskiS.ckptA.001.002.data
(PID.TID 0000.0001)  MDS_READ_SEC_XZ: opening file: pickup_orlanskiS.ckptA.002.002.data
(PID.TID 0000.0001)  MDS_READ_SEC_XZ: opening file: pickup_orlanskiS.ckptA.003.002.data
(PID.TID 0000.0001)  MDS_READ_SEC_XZ: opening file: pickup_orlanskiS.ckptA.004.002.data
(PID.TID 0000.0001)  MDS_READ_SEC_XZ: opening file: pickup_orlanskiS.ckptA.005.002.data
(PID.TID 0000.0001)  MDS_READ_SEC_XZ: opening file: pickup_orlanskiS.ckptA.006.002.data
(PID.TID 0000.0001)  MDS_READ_SEC_XZ: opening file: pickup_orlanskiS.ckptA.007.002.data
(PID.TID 0000.0001)  MDS_READ_SEC_XZ: opening file: pickup_orlanskiS.ckptA.008.002.data
(PID.TID 0000.0001)  MDS_READ_SEC_XZ: opening file: pickup_orlanskiS.ckptA.009.002.data
(PID.TID 0000.0001)  MDS_READ_SEC_XZ: opening file: pickup_orlanskiS.ckptA.010.002.data
(PID.TID 0000.0001)  MDS_READ_SEC_XZ: opening file: pickup_orlanskiS.ckptA.011.002.data
(PID.TID 0000.0001)  MDS_READ_SEC_XZ: opening file: pickup_orlanskiS.ckptA.012.002.data
(PID.TID 0000.0001)  MDS_READ_SEC_XZ: opening file: pickup_orlanskiS.ckptA.013.002.data
(PID.TID 0000.0001)  MDS_READ_SEC_XZ: opening file: pickup_orlanskiS.ckptA.014.002.data
(PID.TID 0000.0001)  MDS_READ_SEC_XZ: opening file: pickup_orlanskiS.ckptA.015.002.data
(PID.TID 0000.0001)  MDS_READ_SEC_XZ: opening file: pickup_orlanskiS.ckptA.001.003.data
(PID.TID 0000.0001)  MDS_READ_SEC_XZ: opening file: pickup_orlanskiS.ckptA.002.003.data
(PID.TID 0000.0001)  MDS_READ_SEC_XZ: opening file: pickup_orlanskiS.ckptA.003.003.data
(PID.TID 0000.0001)  MDS_READ_SEC_XZ: opening file: pickup_orlanskiS.ckptA.004.003.data
(PID.TID 0000.0001)  MDS_READ_SEC_XZ: opening file: pickup_orlanskiS.ckptA.005.003.data
(PID.TID 0000.0001)  MDS_READ_SEC_XZ: opening file: pickup_orlanskiS.ckptA.006.003.data
(PID.TID 0000.0001)  MDS_READ_SEC_XZ: opening file: pickup_orlanskiS.ckptA.007.003.data
(PID.TID 0000.0001)  MDS_READ_SEC_XZ: opening file: pickup_orlanskiS.ckptA.008.003.data
(PID.TID 0000.0001)  MDS_READ_SEC_XZ: opening file: pickup_orlanskiS.ckptA.009.003.data
(PID.TID 0000.0001)  MDS_READ_SEC_XZ: opening file: pickup_orlanskiS.ckptA.010.003.data
(PID.TID 0000.0001)  MDS_READ_SEC_XZ: opening file: pickup_orlanskiS.ckptA.011.003.data
(PID.TID 0000.0001)  MDS_READ_SEC_XZ: opening file: pickup_orlanskiS.ckptA.012.003.data
(PID.TID 0000.0001)  MDS_READ_SEC_XZ: opening file: pickup_orlanskiS.ckptA.013.003.data
(PID.TID 0000.0001)  MDS_READ_SEC_XZ: opening file: pickup_orlanskiS.ckptA.014.003.data
(PID.TID 0000.0001)  MDS_READ_SEC_XZ: opening file: pickup_orlanskiS.ckptA.015.003.data
(PID.TID 0000.0001)  MDS_READ_SEC_XZ: opening file: pickup_orlanskiS.ckptA.001.004.data
(PID.TID 0000.0001)  MDS_READ_SEC_XZ: opening file: pickup_orlanskiS.ckptA.002.004.data
(PID.TID 0000.0001)  MDS_READ_SEC_XZ: opening file: pickup_orlanskiS.ckptA.003.004.data
(PID.TID 0000.0001)  MDS_READ_SEC_XZ: opening file: pickup_orlanskiS.ckptA.004.004.data
(PID.TID 0000.0001)  MDS_READ_SEC_XZ: opening file: pickup_orlanskiS.ckptA.005.004.data
(PID.TID 0000.0001)  MDS_READ_SEC_XZ: opening file: pickup_orlanskiS.ckptA.006.004.data
(PID.TID 0000.0001)  MDS_READ_SEC_XZ: opening file: pickup_orlanskiS.ckptA.007.004.data
(PID.TID 0000.0001)  MDS_READ_SEC_XZ: opening file: pickup_orlanskiS.ckptA.008.004.data
(PID.TID 0000.0001)  MDS_READ_SEC_XZ: opening file: pickup_orlanskiS.ckptA.009.004.data
(PID.TID 0000.0001)  MDS_READ_SEC_XZ: opening file: pickup_orlanskiS.ckptA.010.004.data
(PID.TID 0000.0001)  MDS_READ_SEC_XZ: opening file: pickup_orlanskiS.ckptA.011.004.data
(PID.TID 0000.0001)  MDS_READ_SEC_XZ: opening file: pickup_orlanskiS.ckptA.012.004.data
(PID.TID 0000.0001)  MDS_READ_SEC_XZ: opening file: pickup_orlanskiS.ckptA.013.004.data
(PID.TID 0000.0001)  MDS_READ_SEC_XZ: opening file: pickup_orlanskiS.ckptA.014.004.data
(PID.TID 0000.0001)  MDS_READ_SEC_XZ: opening file: pickup_orlanskiS.ckptA.015.004.data
(PID.TID 0000.0001)  MDS_READ_SEC_XZ: opening file: pickup_orlanskiS.ckptA.001.005.data
(PID.TID 0000.0001)  MDS_READ_SEC_XZ: opening file: pickup_orlanskiS.ckptA.002.005.data
(PID.TID 0000.0001)  MDS_READ_SEC_XZ: opening file: pickup_orlanskiS.ckptA.003.005.data
(PID.TID 0000.0001)  MDS_READ_SEC_XZ: opening file: pickup_orlanskiS.ckptA.004.005.data
(PID.TID 0000.0001)  MDS_READ_SEC_XZ: opening file: pickup_orlanskiS.ckptA.005.005.data
(PID.TID 0000.0001)  MDS_READ_SEC_XZ: opening file: pickup_orlanskiS.ckptA.006.005.data
(PID.TID 0000.0001)  MDS_READ_SEC_XZ: opening file: pickup_orlanskiS.ckptA.007.005.data
(PID.TID 0000.0001)  MDS_READ_SEC_XZ: opening file: pickup_orlanskiS.ckptA.008.005.data
(PID.TID 0000.0001)  MDS_READ_SEC_XZ: opening file: pickup_orlanskiS.ckptA.009.005.data
(PID.TID 0000.0001)  MDS_READ_SEC_XZ: opening file: pickup_orlanskiS.ckptA.010.005.data
(PID.TID 0000.0001)  MDS_READ_SEC_XZ: opening file: pickup_orlanskiS.ckptA.011.005.data
(PID.TID 0000.0001)  MDS_READ_SEC_XZ: opening file: pickup_orlanskiS.ckptA.012.005.data
(PID.TID 0000.0001)  MDS_READ_SEC_XZ: opening file: pickup_orlanskiS.ckptA.013.005.data
(PID.TID 0000.0001)  MDS_READ_SEC_XZ: opening file: pickup_orlanskiS.ckptA.014.005.data
(PID.TID 0000.0001)  MDS_READ_SEC_XZ: opening file: pickup_orlanskiS.ckptA.015.005.data
(PID.TID 0000.0001)  MDS_READ_SEC_XZ: opening file: pickup_orlanskiS.ckptA.001.006.data
(PID.TID 0000.0001)  MDS_READ_SEC_XZ: opening file: pickup_orlanskiS.ckptA.002.006.data
(PID.TID 0000.0001)  MDS_READ_SEC_XZ: opening file: pickup_orlanskiS.ckptA.003.006.data
(PID.TID 0000.0001)  MDS_READ_SEC_XZ: opening file: pickup_orlanskiS.ckptA.004.006.data
(PID.TID 0000.0001)  MDS_READ_SEC_XZ: opening file: pickup_orlanskiS.ckptA.005.006.data
(PID.TID 0000.0001)  MDS_READ_SEC_XZ: opening file: pickup_orlanskiS.ckptA.006.006.data
(PID.TID 0000.0001)  MDS_READ_SEC_XZ: opening file: pickup_orlanskiS.ckptA.007.006.data
(PID.TID 0000.0001)  MDS_READ_SEC_XZ: opening file: pickup_orlanskiS.ckptA.008.006.data
(PID.TID 0000.0001)  MDS_READ_SEC_XZ: opening file: pickup_orlanskiS.ckptA.009.006.data
(PID.TID 0000.0001)  MDS_READ_SEC_XZ: opening file: pickup_orlanskiS.ckptA.010.006.data
(PID.TID 0000.0001)  MDS_READ_SEC_XZ: opening file: pickup_orlanskiS.ckptA.011.006.data
(PID.TID 0000.0001)  MDS_READ_SEC_XZ: opening file: pickup_orlanskiS.ckptA.012.006.data
(PID.TID 0000.0001)  MDS_READ_SEC_XZ: opening file: pickup_orlanskiS.ckptA.013.006.data
(PID.TID 0000.0001)  MDS_READ_SEC_XZ: opening file: pickup_orlanskiS.ckptA.014.006.data
(PID.TID 0000.0001)  MDS_READ_SEC_XZ: opening file: pickup_orlanskiS.ckptA.015.006.data
(PID.TID 0000.0001)  MDS_READ_SEC_XZ: opening file: pickup_orlanskiS.ckptA.001.007.data
(PID.TID 0000.0001)  MDS_READ_SEC_XZ: opening file: pickup_orlanskiS.ckptA.002.007.data
(PID.TID 0000.0001)  MDS_READ_SEC_XZ: opening file: pickup_orlanskiS.ckptA.003.007.data
(PID.TID 0000.0001)  MDS_READ_SEC_XZ: opening file: pickup_orlanskiS.ckptA.004.007.data
(PID.TID 0000.0001)  MDS_READ_SEC_XZ: opening file: pickup_orlanskiS.ckptA.005.007.data
(PID.TID 0000.0001)  MDS_READ_SEC_XZ: opening file: pickup_orlanskiS.ckptA.006.007.data
(PID.TID 0000.0001)  MDS_READ_SEC_XZ: opening file: pickup_orlanskiS.ckptA.007.007.data
(PID.TID 0000.0001)  MDS_READ_SEC_XZ: opening file: pickup_orlanskiS.ckptA.008.007.data
(PID.TID 0000.0001)  MDS_READ_SEC_XZ: opening file: pickup_orlanskiS.ckptA.009.007.data
(PID.TID 0000.0001)  MDS_READ_SEC_XZ: opening file: pickup_orlanskiS.ckptA.010.007.data
(PID.TID 0000.0001)  MDS_READ_SEC_XZ: opening file: pickup_orlanskiS.ckptA.011.007.data
(PID.TID 0000.0001)  MDS_READ_SEC_XZ: opening file: pickup_orlanskiS.ckptA.012.007.data
(PID.TID 0000.0001)  MDS_READ_SEC_XZ: opening file: pickup_orlanskiS.ckptA.013.007.data
(PID.TID 0000.0001)  MDS_READ_SEC_XZ: opening file: pickup_orlanskiS.ckptA.014.007.data
(PID.TID 0000.0001)  MDS_READ_SEC_XZ: opening file: pickup_orlanskiS.ckptA.015.007.data
(PID.TID 0000.0001)  MDS_READ_SEC_XZ: opening file: pickup_orlanskiS.ckptA.001.008.data
(PID.TID 0000.0001)  MDS_READ_SEC_XZ: opening file: pickup_orlanskiS.ckptA.002.008.data
(PID.TID 0000.0001)  MDS_READ_SEC_XZ: opening file: pickup_orlanskiS.ckptA.003.008.data
(PID.TID 0000.0001)  MDS_READ_SEC_XZ: opening file: pickup_orlanskiS.ckptA.004.008.data
(PID.TID 0000.0001)  MDS_READ_SEC_XZ: opening file: pickup_orlanskiS.ckptA.005.008.data
(PID.TID 0000.0001)  MDS_READ_SEC_XZ: opening file: pickup_orlanskiS.ckptA.006.008.data
(PID.TID 0000.0001)  MDS_READ_SEC_XZ: opening file: pickup_orlanskiS.ckptA.007.008.data
(PID.TID 0000.0001)  MDS_READ_SEC_XZ: opening file: pickup_orlanskiS.ckptA.008.008.data
(PID.TID 0000.0001)  MDS_READ_SEC_XZ: opening file: pickup_orlanskiS.ckptA.009.008.data
(PID.TID 0000.0001)  MDS_READ_SEC_XZ: opening file: pickup_orlanskiS.ckptA.010.008.data
(PID.TID 0000.0001)  MDS_READ_SEC_XZ: opening file: pickup_orlanskiS.ckptA.011.008.data
(PID.TID 0000.0001)  MDS_READ_SEC_XZ: opening file: pickup_orlanskiS.ckptA.012.008.data
(PID.TID 0000.0001)  MDS_READ_SEC_XZ: opening file: pickup_orlanskiS.ckptA.013.008.data
(PID.TID 0000.0001)  MDS_READ_SEC_XZ: opening file: pickup_orlanskiS.ckptA.014.008.data
(PID.TID 0000.0001)  MDS_READ_SEC_XZ: opening file: pickup_orlanskiS.ckptA.015.008.data
(PID.TID 0000.0001)  MDS_READ_SEC_XZ: opening file: pickup_orlanskiS.ckptA.001.009.data
(PID.TID 0000.0001)  MDS_READ_SEC_XZ: opening file: pickup_orlanskiS.ckptA.002.009.data
(PID.TID 0000.0001)  MDS_READ_SEC_XZ: opening file: pickup_orlanskiS.ckptA.003.009.data
(PID.TID 0000.0001)  MDS_READ_SEC_XZ: opening file: pickup_orlanskiS.ckptA.004.009.data
(PID.TID 0000.0001)  MDS_READ_SEC_XZ: opening file: pickup_orlanskiS.ckptA.005.009.data
(PID.TID 0000.0001)  MDS_READ_SEC_XZ: opening file: pickup_orlanskiS.ckptA.006.009.data
(PID.TID 0000.0001)  MDS_READ_SEC_XZ: opening file: pickup_orlanskiS.ckptA.007.009.data
(PID.TID 0000.0001)  MDS_READ_SEC_XZ: opening file: pickup_orlanskiS.ckptA.008.009.data
(PID.TID 0000.0001)  MDS_READ_SEC_XZ: opening file: pickup_orlanskiS.ckptA.009.009.data
(PID.TID 0000.0001)  MDS_READ_SEC_XZ: opening file: pickup_orlanskiS.ckptA.010.009.data
(PID.TID 0000.0001)  MDS_READ_SEC_XZ: opening file: pickup_orlanskiS.ckptA.011.009.data
(PID.TID 0000.0001)  MDS_READ_SEC_XZ: opening file: pickup_orlanskiS.ckptA.012.009.data
(PID.TID 0000.0001)  MDS_READ_SEC_XZ: opening file: pickup_orlanskiS.ckptA.013.009.data
(PID.TID 0000.0001)  MDS_READ_SEC_XZ: opening file: pickup_orlanskiS.ckptA.014.009.data
(PID.TID 0000.0001)  MDS_READ_SEC_XZ: opening file: pickup_orlanskiS.ckptA.015.009.data
(PID.TID 0000.0001)  MDS_READ_SEC_XZ: opening file: pickup_orlanskiS.ckptA.001.010.data
(PID.TID 0000.0001)  MDS_READ_SEC_XZ: opening file: pickup_orlanskiS.ckptA.002.010.data
(PID.TID 0000.0001)  MDS_READ_SEC_XZ: opening file: pickup_orlanskiS.ckptA.003.010.data
(PID.TID 0000.0001)  MDS_READ_SEC_XZ: opening file: pickup_orlanskiS.ckptA.004.010.data
(PID.TID 0000.0001)  MDS_READ_SEC_XZ: opening file: pickup_orlanskiS.ckptA.005.010.data
(PID.TID 0000.0001)  MDS_READ_SEC_XZ: opening file: pickup_orlanskiS.ckptA.006.010.data
(PID.TID 0000.0001)  MDS_READ_SEC_XZ: opening file: pickup_orlanskiS.ckptA.007.010.data
(PID.TID 0000.0001)  MDS_READ_SEC_XZ: opening file: pickup_orlanskiS.ckptA.008.010.data
(PID.TID 0000.0001)  MDS_READ_SEC_XZ: opening file: pickup_orlanskiS.ckptA.009.010.data
(PID.TID 0000.0001)  MDS_READ_SEC_XZ: opening file: pickup_orlanskiS.ckptA.010.010.data
(PID.TID 0000.0001)  MDS_READ_SEC_XZ: opening file: pickup_orlanskiS.ckptA.011.010.data
(PID.TID 0000.0001)  MDS_READ_SEC_XZ: opening file: pickup_orlanskiS.ckptA.012.010.data
(PID.TID 0000.0001)  MDS_READ_SEC_XZ: opening file: pickup_orlanskiS.ckptA.013.010.data
(PID.TID 0000.0001)  MDS_READ_SEC_XZ: opening file: pickup_orlanskiS.ckptA.014.010.data
(PID.TID 0000.0001)  MDS_READ_SEC_XZ: opening file: pickup_orlanskiS.ckptA.015.010.data
(PID.TID 0000.0001)  MDS_READ_SEC_XZ: opening file: pickup_orlanskiS.ckptA.001.011.data
(PID.TID 0000.0001)  MDS_READ_SEC_XZ: opening file: pickup_orlanskiS.ckptA.002.011.data
(PID.TID 0000.0001)  MDS_READ_SEC_XZ: opening file: pickup_orlanskiS.ckptA.003.011.data
(PID.TID 0000.0001)  MDS_READ_SEC_XZ: opening file: pickup_orlanskiS.ckptA.004.011.data
(PID.TID 0000.0001)  MDS_READ_SEC_XZ: opening file: pickup_orlanskiS.ckptA.005.011.data
(PID.TID 0000.0001)  MDS_READ_SEC_XZ: opening file: pickup_orlanskiS.ckptA.006.011.data
(PID.TID 0000.0001)  MDS_READ_SEC_XZ: opening file: pickup_orlanskiS.ckptA.007.011.data
(PID.TID 0000.0001)  MDS_READ_SEC_XZ: opening file: pickup_orlanskiS.ckptA.008.011.data
(PID.TID 0000.0001)  MDS_READ_SEC_XZ: opening file: pickup_orlanskiS.ckptA.009.011.data
(PID.TID 0000.0001)  MDS_READ_SEC_XZ: opening file: pickup_orlanskiS.ckptA.010.011.data
(PID.TID 0000.0001)  MDS_READ_SEC_XZ: opening file: pickup_orlanskiS.ckptA.011.011.data
(PID.TID 0000.0001)  MDS_READ_SEC_XZ: opening file: pickup_orlanskiS.ckptA.012.011.data
(PID.TID 0000.0001)  MDS_READ_SEC_XZ: opening file: pickup_orlanskiS.ckptA.013.011.data
(PID.TID 0000.0001)  MDS_READ_SEC_XZ: opening file: pickup_orlanskiS.ckptA.014.011.data
(PID.TID 0000.0001)  MDS_READ_SEC_XZ: opening file: pickup_orlanskiS.ckptA.015.011.data
(PID.TID 0000.0001)  MDS_READ_SEC_XZ: opening file: pickup_orlanskiS.ckptA.001.012.data
(PID.TID 0000.0001)  MDS_READ_SEC_XZ: opening file: pickup_orlanskiS.ckptA.002.012.data
(PID.TID 0000.0001)  MDS_READ_SEC_XZ: opening file: pickup_orlanskiS.ckptA.003.012.data
(PID.TID 0000.0001)  MDS_READ_SEC_XZ: opening file: pickup_orlanskiS.ckptA.004.012.data
(PID.TID 0000.0001)  MDS_READ_SEC_XZ: opening file: pickup_orlanskiS.ckptA.005.012.data
(PID.TID 0000.0001)  MDS_READ_SEC_XZ: opening file: pickup_orlanskiS.ckptA.006.012.data
(PID.TID 0000.0001)  MDS_READ_SEC_XZ: opening file: pickup_orlanskiS.ckptA.007.012.data
(PID.TID 0000.0001)  MDS_READ_SEC_XZ: opening file: pickup_orlanskiS.ckptA.008.012.data
(PID.TID 0000.0001)  MDS_READ_SEC_XZ: opening file: pickup_orlanskiS.ckptA.009.012.data
(PID.TID 0000.0001)  MDS_READ_SEC_XZ: opening file: pickup_orlanskiS.ckptA.010.012.data
(PID.TID 0000.0001)  MDS_READ_SEC_XZ: opening file: pickup_orlanskiS.ckptA.011.012.data
(PID.TID 0000.0001)  MDS_READ_SEC_XZ: opening file: pickup_orlanskiS.ckptA.012.012.data
(PID.TID 0000.0001)  MDS_READ_SEC_XZ: opening file: pickup_orlanskiS.ckptA.013.012.data
(PID.TID 0000.0001)  MDS_READ_SEC_XZ: opening file: pickup_orlanskiS.ckptA.014.012.data
(PID.TID 0000.0001)  MDS_READ_SEC_XZ: opening file: pickup_orlanskiS.ckptA.015.012.data
(PID.TID 0000.0001)  MDS_READ_SEC_XZ: opening file: pickup_orlanskiS.ckptA.001.013.data
(PID.TID 0000.0001)  MDS_READ_SEC_XZ: opening file: pickup_orlanskiS.ckptA.002.013.data
(PID.TID 0000.0001)  MDS_READ_SEC_XZ: opening file: pickup_orlanskiS.ckptA.003.013.data
(PID.TID 0000.0001)  MDS_READ_SEC_XZ: opening file: pickup_orlanskiS.ckptA.004.013.data
(PID.TID 0000.0001)  MDS_READ_SEC_XZ: opening file: pickup_orlanskiS.ckptA.005.013.data
(PID.TID 0000.0001)  MDS_READ_SEC_XZ: opening file: pickup_orlanskiS.ckptA.006.013.data
(PID.TID 0000.0001)  MDS_READ_SEC_XZ: opening file: pickup_orlanskiS.ckptA.007.013.data
(PID.TID 0000.0001)  MDS_READ_SEC_XZ: opening file: pickup_orlanskiS.ckptA.008.013.data
(PID.TID 0000.0001)  MDS_READ_SEC_XZ: opening file: pickup_orlanskiS.ckptA.009.013.data
(PID.TID 0000.0001)  MDS_READ_SEC_XZ: opening file: pickup_orlanskiS.ckptA.010.013.data
(PID.TID 0000.0001)  MDS_READ_SEC_XZ: opening file: pickup_orlanskiS.ckptA.011.013.data
(PID.TID 0000.0001)  MDS_READ_SEC_XZ: opening file: pickup_orlanskiS.ckptA.012.013.data
(PID.TID 0000.0001)  MDS_READ_SEC_XZ: opening file: pickup_orlanskiS.ckptA.013.013.data
(PID.TID 0000.0001)  MDS_READ_SEC_XZ: opening file: pickup_orlanskiS.ckptA.014.013.data
(PID.TID 0000.0001)  MDS_READ_SEC_XZ: opening file: pickup_orlanskiS.ckptA.015.013.data
(PID.TID 0000.0001)  MDS_READ_SEC_XZ: opening file: pickup_orlanskiS.ckptA.001.014.data
(PID.TID 0000.0001)  MDS_READ_SEC_XZ: opening file: pickup_orlanskiS.ckptA.002.014.data
(PID.TID 0000.0001)  MDS_READ_SEC_XZ: opening file: pickup_orlanskiS.ckptA.003.014.data
(PID.TID 0000.0001)  MDS_READ_SEC_XZ: opening file: pickup_orlanskiS.ckptA.004.014.data
(PID.TID 0000.0001)  MDS_READ_SEC_XZ: opening file: pickup_orlanskiS.ckptA.005.014.data
(PID.TID 0000.0001)  MDS_READ_SEC_XZ: opening file: pickup_orlanskiS.ckptA.006.014.data
(PID.TID 0000.0001)  MDS_READ_SEC_XZ: opening file: pickup_orlanskiS.ckptA.007.014.data
(PID.TID 0000.0001)  MDS_READ_SEC_XZ: opening file: pickup_orlanskiS.ckptA.008.014.data
(PID.TID 0000.0001)  MDS_READ_SEC_XZ: opening file: pickup_orlanskiS.ckptA.009.014.data
(PID.TID 0000.0001)  MDS_READ_SEC_XZ: opening file: pickup_orlanskiS.ckptA.010.014.data
(PID.TID 0000.0001)  MDS_READ_SEC_XZ: opening file: pickup_orlanskiS.ckptA.011.014.data
(PID.TID 0000.0001)  MDS_READ_SEC_XZ: opening file: pickup_orlanskiS.ckptA.012.014.data
(PID.TID 0000.0001)  MDS_READ_SEC_XZ: opening file: pickup_orlanskiS.ckptA.013.014.data
(PID.TID 0000.0001)  MDS_READ_SEC_XZ: opening file: pickup_orlanskiS.ckptA.014.014.data
(PID.TID 0000.0001)  MDS_READ_SEC_XZ: opening file: pickup_orlanskiS.ckptA.015.014.data
(PID.TID 0000.0001)  MDS_READ_SEC_XZ: opening file: pickup_orlanskiS.ckptA.001.015.data
(PID.TID 0000.0001)  MDS_READ_SEC_XZ: opening file: pickup_orlanskiS.ckptA.002.015.data
(PID.TID 0000.0001)  MDS_READ_SEC_XZ: opening file: pickup_orlanskiS.ckptA.003.015.data
(PID.TID 0000.0001)  MDS_READ_SEC_XZ: opening file: pickup_orlanskiS.ckptA.004.015.data
(PID.TID 0000.0001)  MDS_READ_SEC_XZ: opening file: pickup_orlanskiS.ckptA.005.015.data
(PID.TID 0000.0001)  MDS_READ_SEC_XZ: opening file: pickup_orlanskiS.ckptA.006.015.data
(PID.TID 0000.0001)  MDS_READ_SEC_XZ: opening file: pickup_orlanskiS.ckptA.007.015.data
(PID.TID 0000.0001)  MDS_READ_SEC_XZ: opening file: pickup_orlanskiS.ckptA.008.015.data
(PID.TID 0000.0001)  MDS_READ_SEC_XZ: opening file: pickup_orlanskiS.ckptA.009.015.data
(PID.TID 0000.0001)  MDS_READ_SEC_XZ: opening file: pickup_orlanskiS.ckptA.010.015.data
(PID.TID 0000.0001)  MDS_READ_SEC_XZ: opening file: pickup_orlanskiS.ckptA.011.015.data
(PID.TID 0000.0001)  MDS_READ_SEC_XZ: opening file: pickup_orlanskiS.ckptA.012.015.data
(PID.TID 0000.0001)  MDS_READ_SEC_XZ: opening file: pickup_orlanskiS.ckptA.013.015.data
(PID.TID 0000.0001)  MDS_READ_SEC_XZ: opening file: pickup_orlanskiS.ckptA.014.015.data
(PID.TID 0000.0001)  MDS_READ_SEC_XZ: opening file: pickup_orlanskiS.ckptA.015.015.data
(PID.TID 0000.0001)  MDS_READ_SEC_XZ: opening file: pickup_orlanskiS.ckptA.001.001.data
(PID.TID 0000.0001)  MDS_READ_SEC_XZ: opening file: pickup_orlanskiS.ckptA.002.001.data
(PID.TID 0000.0001)  MDS_READ_SEC_XZ: opening file: pickup_orlanskiS.ckptA.003.001.data
(PID.TID 0000.0001)  MDS_READ_SEC_XZ: opening file: pickup_orlanskiS.ckptA.004.001.data
(PID.TID 0000.0001)  MDS_READ_SEC_XZ: opening file: pickup_orlanskiS.ckptA.005.001.data
(PID.TID 0000.0001)  MDS_READ_SEC_XZ: opening file: pickup_orlanskiS.ckptA.006.001.data
(PID.TID 0000.0001)  MDS_READ_SEC_XZ: opening file: pickup_orlanskiS.ckptA.007.001.data
(PID.TID 0000.0001)  MDS_READ_SEC_XZ: opening file: pickup_orlanskiS.ckptA.008.001.data
(PID.TID 0000.0001)  MDS_READ_SEC_XZ: opening file: pickup_orlanskiS.ckptA.009.001.data
(PID.TID 0000.0001)  MDS_READ_SEC_XZ: opening file: pickup_orlanskiS.ckptA.010.001.data
(PID.TID 0000.0001)  MDS_READ_SEC_XZ: opening file: pickup_orlanskiS.ckptA.011.001.data
(PID.TID 0000.0001)  MDS_READ_SEC_XZ: opening file: pickup_orlanskiS.ckptA.012.001.data
(PID.TID 0000.0001)  MDS_READ_SEC_XZ: opening file: pickup_orlanskiS.ckptA.013.001.data
(PID.TID 0000.0001)  MDS_READ_SEC_XZ: opening file: pickup_orlanskiS.ckptA.014.001.data
(PID.TID 0000.0001)  MDS_READ_SEC_XZ: opening file: pickup_orlanskiS.ckptA.015.001.data
(PID.TID 0000.0001)  MDS_READ_SEC_XZ: opening file: pickup_orlanskiS.ckptA.001.002.data
(PID.TID 0000.0001)  MDS_READ_SEC_XZ: opening file: pickup_orlanskiS.ckptA.002.002.data
(PID.TID 0000.0001)  MDS_READ_SEC_XZ: opening file: pickup_orlanskiS.ckptA.003.002.data
(PID.TID 0000.0001)  MDS_READ_SEC_XZ: opening file: pickup_orlanskiS.ckptA.004.002.data
(PID.TID 0000.0001)  MDS_READ_SEC_XZ: opening file: pickup_orlanskiS.ckptA.005.002.data
(PID.TID 0000.0001)  MDS_READ_SEC_XZ: opening file: pickup_orlanskiS.ckptA.006.002.data
(PID.TID 0000.0001)  MDS_READ_SEC_XZ: opening file: pickup_orlanskiS.ckptA.007.002.data
(PID.TID 0000.0001)  MDS_READ_SEC_XZ: opening file: pickup_orlanskiS.ckptA.008.002.data
(PID.TID 0000.0001)  MDS_READ_SEC_XZ: opening file: pickup_orlanskiS.ckptA.009.002.data
(PID.TID 0000.0001)  MDS_READ_SEC_XZ: opening file: pickup_orlanskiS.ckptA.010.002.data
(PID.TID 0000.0001)  MDS_READ_SEC_XZ: opening file: pickup_orlanskiS.ckptA.011.002.data
(PID.TID 0000.0001)  MDS_READ_SEC_XZ: opening file: pickup_orlanskiS.ckptA.012.002.data
(PID.TID 0000.0001)  MDS_READ_SEC_XZ: opening file: pickup_orlanskiS.ckptA.013.002.data
(PID.TID 0000.0001)  MDS_READ_SEC_XZ: opening file: pickup_orlanskiS.ckptA.014.002.data
(PID.TID 0000.0001)  MDS_READ_SEC_XZ: opening file: pickup_orlanskiS.ckptA.015.002.data
(PID.TID 0000.0001)  MDS_READ_SEC_XZ: opening file: pickup_orlanskiS.ckptA.001.003.data
(PID.TID 0000.0001)  MDS_READ_SEC_XZ: opening file: pickup_orlanskiS.ckptA.002.003.data
(PID.TID 0000.0001)  MDS_READ_SEC_XZ: opening file: pickup_orlanskiS.ckptA.003.003.data
(PID.TID 0000.0001)  MDS_READ_SEC_XZ: opening file: pickup_orlanskiS.ckptA.004.003.data
(PID.TID 0000.0001)  MDS_READ_SEC_XZ: opening file: pickup_orlanskiS.ckptA.005.003.data
(PID.TID 0000.0001)  MDS_READ_SEC_XZ: opening file: pickup_orlanskiS.ckptA.006.003.data
(PID.TID 0000.0001)  MDS_READ_SEC_XZ: opening file: pickup_orlanskiS.ckptA.007.003.data
(PID.TID 0000.0001)  MDS_READ_SEC_XZ: opening file: pickup_orlanskiS.ckptA.008.003.data
(PID.TID 0000.0001)  MDS_READ_SEC_XZ: opening file: pickup_orlanskiS.ckptA.009.003.data
(PID.TID 0000.0001)  MDS_READ_SEC_XZ: opening file: pickup_orlanskiS.ckptA.010.003.data
(PID.TID 0000.0001)  MDS_READ_SEC_XZ: opening file: pickup_orlanskiS.ckptA.011.003.data
(PID.TID 0000.0001)  MDS_READ_SEC_XZ: opening file: pickup_orlanskiS.ckptA.012.003.data
(PID.TID 0000.0001)  MDS_READ_SEC_XZ: opening file: pickup_orlanskiS.ckptA.013.003.data
(PID.TID 0000.0001)  MDS_READ_SEC_XZ: opening file: pickup_orlanskiS.ckptA.014.003.data
(PID.TID 0000.0001)  MDS_READ_SEC_XZ: opening file: pickup_orlanskiS.ckptA.015.003.data
(PID.TID 0000.0001)  MDS_READ_SEC_XZ: opening file: pickup_orlanskiS.ckptA.001.004.data
(PID.TID 0000.0001)  MDS_READ_SEC_XZ: opening file: pickup_orlanskiS.ckptA.002.004.data
(PID.TID 0000.0001)  MDS_READ_SEC_XZ: opening file: pickup_orlanskiS.ckptA.003.004.data
(PID.TID 0000.0001)  MDS_READ_SEC_XZ: opening file: pickup_orlanskiS.ckptA.004.004.data
(PID.TID 0000.0001)  MDS_READ_SEC_XZ: opening file: pickup_orlanskiS.ckptA.005.004.data
(PID.TID 0000.0001)  MDS_READ_SEC_XZ: opening file: pickup_orlanskiS.ckptA.006.004.data
(PID.TID 0000.0001)  MDS_READ_SEC_XZ: opening file: pickup_orlanskiS.ckptA.007.004.data
(PID.TID 0000.0001)  MDS_READ_SEC_XZ: opening file: pickup_orlanskiS.ckptA.008.004.data
(PID.TID 0000.0001)  MDS_READ_SEC_XZ: opening file: pickup_orlanskiS.ckptA.009.004.data
(PID.TID 0000.0001)  MDS_READ_SEC_XZ: opening file: pickup_orlanskiS.ckptA.010.004.data
(PID.TID 0000.0001)  MDS_READ_SEC_XZ: opening file: pickup_orlanskiS.ckptA.011.004.data
(PID.TID 0000.0001)  MDS_READ_SEC_XZ: opening file: pickup_orlanskiS.ckptA.012.004.data
(PID.TID 0000.0001)  MDS_READ_SEC_XZ: opening file: pickup_orlanskiS.ckptA.013.004.data
(PID.TID 0000.0001)  MDS_READ_SEC_XZ: opening file: pickup_orlanskiS.ckptA.014.004.data
(PID.TID 0000.0001)  MDS_READ_SEC_XZ: opening file: pickup_orlanskiS.ckptA.015.004.data
(PID.TID 0000.0001)  MDS_READ_SEC_XZ: opening file: pickup_orlanskiS.ckptA.001.005.data
(PID.TID 0000.0001)  MDS_READ_SEC_XZ: opening file: pickup_orlanskiS.ckptA.002.005.data
(PID.TID 0000.0001)  MDS_READ_SEC_XZ: opening file: pickup_orlanskiS.ckptA.003.005.data
(PID.TID 0000.0001)  MDS_READ_SEC_XZ: opening file: pickup_orlanskiS.ckptA.004.005.data
(PID.TID 0000.0001)  MDS_READ_SEC_XZ: opening file: pickup_orlanskiS.ckptA.005.005.data
(PID.TID 0000.0001)  MDS_READ_SEC_XZ: opening file: pickup_orlanskiS.ckptA.006.005.data
(PID.TID 0000.0001)  MDS_READ_SEC_XZ: opening file: pickup_orlanskiS.ckptA.007.005.data
(PID.TID 0000.0001)  MDS_READ_SEC_XZ: opening file: pickup_orlanskiS.ckptA.008.005.data
(PID.TID 0000.0001)  MDS_READ_SEC_XZ: opening file: pickup_orlanskiS.ckptA.009.005.data
(PID.TID 0000.0001)  MDS_READ_SEC_XZ: opening file: pickup_orlanskiS.ckptA.010.005.data
(PID.TID 0000.0001)  MDS_READ_SEC_XZ: opening file: pickup_orlanskiS.ckptA.011.005.data
(PID.TID 0000.0001)  MDS_READ_SEC_XZ: opening file: pickup_orlanskiS.ckptA.012.005.data
(PID.TID 0000.0001)  MDS_READ_SEC_XZ: opening file: pickup_orlanskiS.ckptA.013.005.data
(PID.TID 0000.0001)  MDS_READ_SEC_XZ: opening file: pickup_orlanskiS.ckptA.014.005.data
(PID.TID 0000.0001)  MDS_READ_SEC_XZ: opening file: pickup_orlanskiS.ckptA.015.005.data
(PID.TID 0000.0001)  MDS_READ_SEC_XZ: opening file: pickup_orlanskiS.ckptA.001.006.data
(PID.TID 0000.0001)  MDS_READ_SEC_XZ: opening file: pickup_orlanskiS.ckptA.002.006.data
(PID.TID 0000.0001)  MDS_READ_SEC_XZ: opening file: pickup_orlanskiS.ckptA.003.006.data
(PID.TID 0000.0001)  MDS_READ_SEC_XZ: opening file: pickup_orlanskiS.ckptA.004.006.data
(PID.TID 0000.0001)  MDS_READ_SEC_XZ: opening file: pickup_orlanskiS.ckptA.005.006.data
(PID.TID 0000.0001)  MDS_READ_SEC_XZ: opening file: pickup_orlanskiS.ckptA.006.006.data
(PID.TID 0000.0001)  MDS_READ_SEC_XZ: opening file: pickup_orlanskiS.ckptA.007.006.data
(PID.TID 0000.0001)  MDS_READ_SEC_XZ: opening file: pickup_orlanskiS.ckptA.008.006.data
(PID.TID 0000.0001)  MDS_READ_SEC_XZ: opening file: pickup_orlanskiS.ckptA.009.006.data
(PID.TID 0000.0001)  MDS_READ_SEC_XZ: opening file: pickup_orlanskiS.ckptA.010.006.data
(PID.TID 0000.0001)  MDS_READ_SEC_XZ: opening file: pickup_orlanskiS.ckptA.011.006.data
(PID.TID 0000.0001)  MDS_READ_SEC_XZ: opening file: pickup_orlanskiS.ckptA.012.006.data
(PID.TID 0000.0001)  MDS_READ_SEC_XZ: opening file: pickup_orlanskiS.ckptA.013.006.data
(PID.TID 0000.0001)  MDS_READ_SEC_XZ: opening file: pickup_orlanskiS.ckptA.014.006.data
(PID.TID 0000.0001)  MDS_READ_SEC_XZ: opening file: pickup_orlanskiS.ckptA.015.006.data
(PID.TID 0000.0001)  MDS_READ_SEC_XZ: opening file: pickup_orlanskiS.ckptA.001.007.data
(PID.TID 0000.0001)  MDS_READ_SEC_XZ: opening file: pickup_orlanskiS.ckptA.002.007.data
(PID.TID 0000.0001)  MDS_READ_SEC_XZ: opening file: pickup_orlanskiS.ckptA.003.007.data
(PID.TID 0000.0001)  MDS_READ_SEC_XZ: opening file: pickup_orlanskiS.ckptA.004.007.data
(PID.TID 0000.0001)  MDS_READ_SEC_XZ: opening file: pickup_orlanskiS.ckptA.005.007.data
(PID.TID 0000.0001)  MDS_READ_SEC_XZ: opening file: pickup_orlanskiS.ckptA.006.007.data
(PID.TID 0000.0001)  MDS_READ_SEC_XZ: opening file: pickup_orlanskiS.ckptA.007.007.data
(PID.TID 0000.0001)  MDS_READ_SEC_XZ: opening file: pickup_orlanskiS.ckptA.008.007.data
(PID.TID 0000.0001)  MDS_READ_SEC_XZ: opening file: pickup_orlanskiS.ckptA.009.007.data
(PID.TID 0000.0001)  MDS_READ_SEC_XZ: opening file: pickup_orlanskiS.ckptA.010.007.data
(PID.TID 0000.0001)  MDS_READ_SEC_XZ: opening file: pickup_orlanskiS.ckptA.011.007.data
(PID.TID 0000.0001)  MDS_READ_SEC_XZ: opening file: pickup_orlanskiS.ckptA.012.007.data
(PID.TID 0000.0001)  MDS_READ_SEC_XZ: opening file: pickup_orlanskiS.ckptA.013.007.data
(PID.TID 0000.0001)  MDS_READ_SEC_XZ: opening file: pickup_orlanskiS.ckptA.014.007.data
(PID.TID 0000.0001)  MDS_READ_SEC_XZ: opening file: pickup_orlanskiS.ckptA.015.007.data
(PID.TID 0000.0001)  MDS_READ_SEC_XZ: opening file: pickup_orlanskiS.ckptA.001.008.data
(PID.TID 0000.0001)  MDS_READ_SEC_XZ: opening file: pickup_orlanskiS.ckptA.002.008.data
(PID.TID 0000.0001)  MDS_READ_SEC_XZ: opening file: pickup_orlanskiS.ckptA.003.008.data
(PID.TID 0000.0001)  MDS_READ_SEC_XZ: opening file: pickup_orlanskiS.ckptA.004.008.data
(PID.TID 0000.0001)  MDS_READ_SEC_XZ: opening file: pickup_orlanskiS.ckptA.005.008.data
(PID.TID 0000.0001)  MDS_READ_SEC_XZ: opening file: pickup_orlanskiS.ckptA.006.008.data
(PID.TID 0000.0001)  MDS_READ_SEC_XZ: opening file: pickup_orlanskiS.ckptA.007.008.data
(PID.TID 0000.0001)  MDS_READ_SEC_XZ: opening file: pickup_orlanskiS.ckptA.008.008.data
(PID.TID 0000.0001)  MDS_READ_SEC_XZ: opening file: pickup_orlanskiS.ckptA.009.008.data
(PID.TID 0000.0001)  MDS_READ_SEC_XZ: opening file: pickup_orlanskiS.ckptA.010.008.data
(PID.TID 0000.0001)  MDS_READ_SEC_XZ: opening file: pickup_orlanskiS.ckptA.011.008.data
(PID.TID 0000.0001)  MDS_READ_SEC_XZ: opening file: pickup_orlanskiS.ckptA.012.008.data
(PID.TID 0000.0001)  MDS_READ_SEC_XZ: opening file: pickup_orlanskiS.ckptA.013.008.data
(PID.TID 0000.0001)  MDS_READ_SEC_XZ: opening file: pickup_orlanskiS.ckptA.014.008.data
(PID.TID 0000.0001)  MDS_READ_SEC_XZ: opening file: pickup_orlanskiS.ckptA.015.008.data
(PID.TID 0000.0001)  MDS_READ_SEC_XZ: opening file: pickup_orlanskiS.ckptA.001.009.data
(PID.TID 0000.0001)  MDS_READ_SEC_XZ: opening file: pickup_orlanskiS.ckptA.002.009.data
(PID.TID 0000.0001)  MDS_READ_SEC_XZ: opening file: pickup_orlanskiS.ckptA.003.009.data
(PID.TID 0000.0001)  MDS_READ_SEC_XZ: opening file: pickup_orlanskiS.ckptA.004.009.data
(PID.TID 0000.0001)  MDS_READ_SEC_XZ: opening file: pickup_orlanskiS.ckptA.005.009.data
(PID.TID 0000.0001)  MDS_READ_SEC_XZ: opening file: pickup_orlanskiS.ckptA.006.009.data
(PID.TID 0000.0001)  MDS_READ_SEC_XZ: opening file: pickup_orlanskiS.ckptA.007.009.data
(PID.TID 0000.0001)  MDS_READ_SEC_XZ: opening file: pickup_orlanskiS.ckptA.008.009.data
(PID.TID 0000.0001)  MDS_READ_SEC_XZ: opening file: pickup_orlanskiS.ckptA.009.009.data
(PID.TID 0000.0001)  MDS_READ_SEC_XZ: opening file: pickup_orlanskiS.ckptA.010.009.data
(PID.TID 0000.0001)  MDS_READ_SEC_XZ: opening file: pickup_orlanskiS.ckptA.011.009.data
(PID.TID 0000.0001)  MDS_READ_SEC_XZ: opening file: pickup_orlanskiS.ckptA.012.009.data
(PID.TID 0000.0001)  MDS_READ_SEC_XZ: opening file: pickup_orlanskiS.ckptA.013.009.data
(PID.TID 0000.0001)  MDS_READ_SEC_XZ: opening file: pickup_orlanskiS.ckptA.014.009.data
(PID.TID 0000.0001)  MDS_READ_SEC_XZ: opening file: pickup_orlanskiS.ckptA.015.009.data
(PID.TID 0000.0001)  MDS_READ_SEC_XZ: opening file: pickup_orlanskiS.ckptA.001.010.data
(PID.TID 0000.0001)  MDS_READ_SEC_XZ: opening file: pickup_orlanskiS.ckptA.002.010.data
(PID.TID 0000.0001)  MDS_READ_SEC_XZ: opening file: pickup_orlanskiS.ckptA.003.010.data
(PID.TID 0000.0001)  MDS_READ_SEC_XZ: opening file: pickup_orlanskiS.ckptA.004.010.data
(PID.TID 0000.0001)  MDS_READ_SEC_XZ: opening file: pickup_orlanskiS.ckptA.005.010.data
(PID.TID 0000.0001)  MDS_READ_SEC_XZ: opening file: pickup_orlanskiS.ckptA.006.010.data
(PID.TID 0000.0001)  MDS_READ_SEC_XZ: opening file: pickup_orlanskiS.ckptA.007.010.data
(PID.TID 0000.0001)  MDS_READ_SEC_XZ: opening file: pickup_orlanskiS.ckptA.008.010.data
(PID.TID 0000.0001)  MDS_READ_SEC_XZ: opening file: pickup_orlanskiS.ckptA.009.010.data
(PID.TID 0000.0001)  MDS_READ_SEC_XZ: opening file: pickup_orlanskiS.ckptA.010.010.data
(PID.TID 0000.0001)  MDS_READ_SEC_XZ: opening file: pickup_orlanskiS.ckptA.011.010.data
(PID.TID 0000.0001)  MDS_READ_SEC_XZ: opening file: pickup_orlanskiS.ckptA.012.010.data
(PID.TID 0000.0001)  MDS_READ_SEC_XZ: opening file: pickup_orlanskiS.ckptA.013.010.data
(PID.TID 0000.0001)  MDS_READ_SEC_XZ: opening file: pickup_orlanskiS.ckptA.014.010.data
(PID.TID 0000.0001)  MDS_READ_SEC_XZ: opening file: pickup_orlanskiS.ckptA.015.010.data
(PID.TID 0000.0001)  MDS_READ_SEC_XZ: opening file: pickup_orlanskiS.ckptA.001.011.data
(PID.TID 0000.0001)  MDS_READ_SEC_XZ: opening file: pickup_orlanskiS.ckptA.002.011.data
(PID.TID 0000.0001)  MDS_READ_SEC_XZ: opening file: pickup_orlanskiS.ckptA.003.011.data
(PID.TID 0000.0001)  MDS_READ_SEC_XZ: opening file: pickup_orlanskiS.ckptA.004.011.data
(PID.TID 0000.0001)  MDS_READ_SEC_XZ: opening file: pickup_orlanskiS.ckptA.005.011.data
(PID.TID 0000.0001)  MDS_READ_SEC_XZ: opening file: pickup_orlanskiS.ckptA.006.011.data
(PID.TID 0000.0001)  MDS_READ_SEC_XZ: opening file: pickup_orlanskiS.ckptA.007.011.data
(PID.TID 0000.0001)  MDS_READ_SEC_XZ: opening file: pickup_orlanskiS.ckptA.008.011.data
(PID.TID 0000.0001)  MDS_READ_SEC_XZ: opening file: pickup_orlanskiS.ckptA.009.011.data
(PID.TID 0000.0001)  MDS_READ_SEC_XZ: opening file: pickup_orlanskiS.ckptA.010.011.data
(PID.TID 0000.0001)  MDS_READ_SEC_XZ: opening file: pickup_orlanskiS.ckptA.011.011.data
(PID.TID 0000.0001)  MDS_READ_SEC_XZ: opening file: pickup_orlanskiS.ckptA.012.011.data
(PID.TID 0000.0001)  MDS_READ_SEC_XZ: opening file: pickup_orlanskiS.ckptA.013.011.data
(PID.TID 0000.0001)  MDS_READ_SEC_XZ: opening file: pickup_orlanskiS.ckptA.014.011.data
(PID.TID 0000.0001)  MDS_READ_SEC_XZ: opening file: pickup_orlanskiS.ckptA.015.011.data
(PID.TID 0000.0001)  MDS_READ_SEC_XZ: opening file: pickup_orlanskiS.ckptA.001.012.data
(PID.TID 0000.0001)  MDS_READ_SEC_XZ: opening file: pickup_orlanskiS.ckptA.002.012.data
(PID.TID 0000.0001)  MDS_READ_SEC_XZ: opening file: pickup_orlanskiS.ckptA.003.012.data
(PID.TID 0000.0001)  MDS_READ_SEC_XZ: opening file: pickup_orlanskiS.ckptA.004.012.data
(PID.TID 0000.0001)  MDS_READ_SEC_XZ: opening file: pickup_orlanskiS.ckptA.005.012.data
(PID.TID 0000.0001)  MDS_READ_SEC_XZ: opening file: pickup_orlanskiS.ckptA.006.012.data
(PID.TID 0000.0001)  MDS_READ_SEC_XZ: opening file: pickup_orlanskiS.ckptA.007.012.data
(PID.TID 0000.0001)  MDS_READ_SEC_XZ: opening file: pickup_orlanskiS.ckptA.008.012.data
(PID.TID 0000.0001)  MDS_READ_SEC_XZ: opening file: pickup_orlanskiS.ckptA.009.012.data
(PID.TID 0000.0001)  MDS_READ_SEC_XZ: opening file: pickup_orlanskiS.ckptA.010.012.data
(PID.TID 0000.0001)  MDS_READ_SEC_XZ: opening file: pickup_orlanskiS.ckptA.011.012.data
(PID.TID 0000.0001)  MDS_READ_SEC_XZ: opening file: pickup_orlanskiS.ckptA.012.012.data
(PID.TID 0000.0001)  MDS_READ_SEC_XZ: opening file: pickup_orlanskiS.ckptA.013.012.data
(PID.TID 0000.0001)  MDS_READ_SEC_XZ: opening file: pickup_orlanskiS.ckptA.014.012.data
(PID.TID 0000.0001)  MDS_READ_SEC_XZ: opening file: pickup_orlanskiS.ckptA.015.012.data
(PID.TID 0000.0001)  MDS_READ_SEC_XZ: opening file: pickup_orlanskiS.ckptA.001.013.data
(PID.TID 0000.0001)  MDS_READ_SEC_XZ: opening file: pickup_orlanskiS.ckptA.002.013.data
(PID.TID 0000.0001)  MDS_READ_SEC_XZ: opening file: pickup_orlanskiS.ckptA.003.013.data
(PID.TID 0000.0001)  MDS_READ_SEC_XZ: opening file: pickup_orlanskiS.ckptA.004.013.data
(PID.TID 0000.0001)  MDS_READ_SEC_XZ: opening file: pickup_orlanskiS.ckptA.005.013.data
(PID.TID 0000.0001)  MDS_READ_SEC_XZ: opening file: pickup_orlanskiS.ckptA.006.013.data
(PID.TID 0000.0001)  MDS_READ_SEC_XZ: opening file: pickup_orlanskiS.ckptA.007.013.data
(PID.TID 0000.0001)  MDS_READ_SEC_XZ: opening file: pickup_orlanskiS.ckptA.008.013.data
(PID.TID 0000.0001)  MDS_READ_SEC_XZ: opening file: pickup_orlanskiS.ckptA.009.013.data
(PID.TID 0000.0001)  MDS_READ_SEC_XZ: opening file: pickup_orlanskiS.ckptA.010.013.data
(PID.TID 0000.0001)  MDS_READ_SEC_XZ: opening file: pickup_orlanskiS.ckptA.011.013.data
(PID.TID 0000.0001)  MDS_READ_SEC_XZ: opening file: pickup_orlanskiS.ckptA.012.013.data
(PID.TID 0000.0001)  MDS_READ_SEC_XZ: opening file: pickup_orlanskiS.ckptA.013.013.data
(PID.TID 0000.0001)  MDS_READ_SEC_XZ: opening file: pickup_orlanskiS.ckptA.014.013.data
(PID.TID 0000.0001)  MDS_READ_SEC_XZ: opening file: pickup_orlanskiS.ckptA.015.013.data
(PID.TID 0000.0001)  MDS_READ_SEC_XZ: opening file: pickup_orlanskiS.ckptA.001.014.data
(PID.TID 0000.0001)  MDS_READ_SEC_XZ: opening file: pickup_orlanskiS.ckptA.002.014.data
(PID.TID 0000.0001)  MDS_READ_SEC_XZ: opening file: pickup_orlanskiS.ckptA.003.014.data
(PID.TID 0000.0001)  MDS_READ_SEC_XZ: opening file: pickup_orlanskiS.ckptA.004.014.data
(PID.TID 0000.0001)  MDS_READ_SEC_XZ: opening file: pickup_orlanskiS.ckptA.005.014.data
(PID.TID 0000.0001)  MDS_READ_SEC_XZ: opening file: pickup_orlanskiS.ckptA.006.014.data
(PID.TID 0000.0001)  MDS_READ_SEC_XZ: opening file: pickup_orlanskiS.ckptA.007.014.data
(PID.TID 0000.0001)  MDS_READ_SEC_XZ: opening file: pickup_orlanskiS.ckptA.008.014.data
(PID.TID 0000.0001)  MDS_READ_SEC_XZ: opening file: pickup_orlanskiS.ckptA.009.014.data
(PID.TID 0000.0001)  MDS_READ_SEC_XZ: opening file: pickup_orlanskiS.ckptA.010.014.data
(PID.TID 0000.0001)  MDS_READ_SEC_XZ: opening file: pickup_orlanskiS.ckptA.011.014.data
(PID.TID 0000.0001)  MDS_READ_SEC_XZ: opening file: pickup_orlanskiS.ckptA.012.014.data
(PID.TID 0000.0001)  MDS_READ_SEC_XZ: opening file: pickup_orlanskiS.ckptA.013.014.data
(PID.TID 0000.0001)  MDS_READ_SEC_XZ: opening file: pickup_orlanskiS.ckptA.014.014.data
(PID.TID 0000.0001)  MDS_READ_SEC_XZ: opening file: pickup_orlanskiS.ckptA.015.014.data
(PID.TID 0000.0001)  MDS_READ_SEC_XZ: opening file: pickup_orlanskiS.ckptA.001.015.data
(PID.TID 0000.0001)  MDS_READ_SEC_XZ: opening file: pickup_orlanskiS.ckptA.002.015.data
(PID.TID 0000.0001)  MDS_READ_SEC_XZ: opening file: pickup_orlanskiS.ckptA.003.015.data
(PID.TID 0000.0001)  MDS_READ_SEC_XZ: opening file: pickup_orlanskiS.ckptA.004.015.data
(PID.TID 0000.0001)  MDS_READ_SEC_XZ: opening file: pickup_orlanskiS.ckptA.005.015.data
(PID.TID 0000.0001)  MDS_READ_SEC_XZ: opening file: pickup_orlanskiS.ckptA.006.015.data
(PID.TID 0000.0001)  MDS_READ_SEC_XZ: opening file: pickup_orlanskiS.ckptA.007.015.data
(PID.TID 0000.0001)  MDS_READ_SEC_XZ: opening file: pickup_orlanskiS.ckptA.008.015.data
(PID.TID 0000.0001)  MDS_READ_SEC_XZ: opening file: pickup_orlanskiS.ckptA.009.015.data
(PID.TID 0000.0001)  MDS_READ_SEC_XZ: opening file: pickup_orlanskiS.ckptA.010.015.data
(PID.TID 0000.0001)  MDS_READ_SEC_XZ: opening file: pickup_orlanskiS.ckptA.011.015.data
(PID.TID 0000.0001)  MDS_READ_SEC_XZ: opening file: pickup_orlanskiS.ckptA.012.015.data
(PID.TID 0000.0001)  MDS_READ_SEC_XZ: opening file: pickup_orlanskiS.ckptA.013.015.data
(PID.TID 0000.0001)  MDS_READ_SEC_XZ: opening file: pickup_orlanskiS.ckptA.014.015.data
(PID.TID 0000.0001)  MDS_READ_SEC_XZ: opening file: pickup_orlanskiS.ckptA.015.015.data
(PID.TID 0000.0001)  MDS_READ_SEC_XZ: opening file: pickup_orlanskiS.ckptA.001.001.data
(PID.TID 0000.0001)  MDS_READ_SEC_XZ: opening file: pickup_orlanskiS.ckptA.002.001.data
(PID.TID 0000.0001)  MDS_READ_SEC_XZ: opening file: pickup_orlanskiS.ckptA.003.001.data
(PID.TID 0000.0001)  MDS_READ_SEC_XZ: opening file: pickup_orlanskiS.ckptA.004.001.data
(PID.TID 0000.0001)  MDS_READ_SEC_XZ: opening file: pickup_orlanskiS.ckptA.005.001.data
(PID.TID 0000.0001)  MDS_READ_SEC_XZ: opening file: pickup_orlanskiS.ckptA.006.001.data
(PID.TID 0000.0001)  MDS_READ_SEC_XZ: opening file: pickup_orlanskiS.ckptA.007.001.data
(PID.TID 0000.0001)  MDS_READ_SEC_XZ: opening file: pickup_orlanskiS.ckptA.008.001.data
(PID.TID 0000.0001)  MDS_READ_SEC_XZ: opening file: pickup_orlanskiS.ckptA.009.001.data
(PID.TID 0000.0001)  MDS_READ_SEC_XZ: opening file: pickup_orlanskiS.ckptA.010.001.data
(PID.TID 0000.0001)  MDS_READ_SEC_XZ: opening file: pickup_orlanskiS.ckptA.011.001.data
(PID.TID 0000.0001)  MDS_READ_SEC_XZ: opening file: pickup_orlanskiS.ckptA.012.001.data
(PID.TID 0000.0001)  MDS_READ_SEC_XZ: opening file: pickup_orlanskiS.ckptA.013.001.data
(PID.TID 0000.0001)  MDS_READ_SEC_XZ: opening file: pickup_orlanskiS.ckptA.014.001.data
(PID.TID 0000.0001)  MDS_READ_SEC_XZ: opening file: pickup_orlanskiS.ckptA.015.001.data
(PID.TID 0000.0001)  MDS_READ_SEC_XZ: opening file: pickup_orlanskiS.ckptA.001.002.data
(PID.TID 0000.0001)  MDS_READ_SEC_XZ: opening file: pickup_orlanskiS.ckptA.002.002.data
(PID.TID 0000.0001)  MDS_READ_SEC_XZ: opening file: pickup_orlanskiS.ckptA.003.002.data
(PID.TID 0000.0001)  MDS_READ_SEC_XZ: opening file: pickup_orlanskiS.ckptA.004.002.data
(PID.TID 0000.0001)  MDS_READ_SEC_XZ: opening file: pickup_orlanskiS.ckptA.005.002.data
(PID.TID 0000.0001)  MDS_READ_SEC_XZ: opening file: pickup_orlanskiS.ckptA.006.002.data
(PID.TID 0000.0001)  MDS_READ_SEC_XZ: opening file: pickup_orlanskiS.ckptA.007.002.data
(PID.TID 0000.0001)  MDS_READ_SEC_XZ: opening file: pickup_orlanskiS.ckptA.008.002.data
(PID.TID 0000.0001)  MDS_READ_SEC_XZ: opening file: pickup_orlanskiS.ckptA.009.002.data
(PID.TID 0000.0001)  MDS_READ_SEC_XZ: opening file: pickup_orlanskiS.ckptA.010.002.data
(PID.TID 0000.0001)  MDS_READ_SEC_XZ: opening file: pickup_orlanskiS.ckptA.011.002.data
(PID.TID 0000.0001)  MDS_READ_SEC_XZ: opening file: pickup_orlanskiS.ckptA.012.002.data
(PID.TID 0000.0001)  MDS_READ_SEC_XZ: opening file: pickup_orlanskiS.ckptA.013.002.data
(PID.TID 0000.0001)  MDS_READ_SEC_XZ: opening file: pickup_orlanskiS.ckptA.014.002.data
(PID.TID 0000.0001)  MDS_READ_SEC_XZ: opening file: pickup_orlanskiS.ckptA.015.002.data
(PID.TID 0000.0001)  MDS_READ_SEC_XZ: opening file: pickup_orlanskiS.ckptA.001.003.data
(PID.TID 0000.0001)  MDS_READ_SEC_XZ: opening file: pickup_orlanskiS.ckptA.002.003.data
(PID.TID 0000.0001)  MDS_READ_SEC_XZ: opening file: pickup_orlanskiS.ckptA.003.003.data
(PID.TID 0000.0001)  MDS_READ_SEC_XZ: opening file: pickup_orlanskiS.ckptA.004.003.data
(PID.TID 0000.0001)  MDS_READ_SEC_XZ: opening file: pickup_orlanskiS.ckptA.005.003.data
(PID.TID 0000.0001)  MDS_READ_SEC_XZ: opening file: pickup_orlanskiS.ckptA.006.003.data
(PID.TID 0000.0001)  MDS_READ_SEC_XZ: opening file: pickup_orlanskiS.ckptA.007.003.data
(PID.TID 0000.0001)  MDS_READ_SEC_XZ: opening file: pickup_orlanskiS.ckptA.008.003.data
(PID.TID 0000.0001)  MDS_READ_SEC_XZ: opening file: pickup_orlanskiS.ckptA.009.003.data
(PID.TID 0000.0001)  MDS_READ_SEC_XZ: opening file: pickup_orlanskiS.ckptA.010.003.data
(PID.TID 0000.0001)  MDS_READ_SEC_XZ: opening file: pickup_orlanskiS.ckptA.011.003.data
(PID.TID 0000.0001)  MDS_READ_SEC_XZ: opening file: pickup_orlanskiS.ckptA.012.003.data
(PID.TID 0000.0001)  MDS_READ_SEC_XZ: opening file: pickup_orlanskiS.ckptA.013.003.data
(PID.TID 0000.0001)  MDS_READ_SEC_XZ: opening file: pickup_orlanskiS.ckptA.014.003.data
(PID.TID 0000.0001)  MDS_READ_SEC_XZ: opening file: pickup_orlanskiS.ckptA.015.003.data
(PID.TID 0000.0001)  MDS_READ_SEC_XZ: opening file: pickup_orlanskiS.ckptA.001.004.data
(PID.TID 0000.0001)  MDS_READ_SEC_XZ: opening file: pickup_orlanskiS.ckptA.002.004.data
(PID.TID 0000.0001)  MDS_READ_SEC_XZ: opening file: pickup_orlanskiS.ckptA.003.004.data
(PID.TID 0000.0001)  MDS_READ_SEC_XZ: opening file: pickup_orlanskiS.ckptA.004.004.data
(PID.TID 0000.0001)  MDS_READ_SEC_XZ: opening file: pickup_orlanskiS.ckptA.005.004.data
(PID.TID 0000.0001)  MDS_READ_SEC_XZ: opening file: pickup_orlanskiS.ckptA.006.004.data
(PID.TID 0000.0001)  MDS_READ_SEC_XZ: opening file: pickup_orlanskiS.ckptA.007.004.data
(PID.TID 0000.0001)  MDS_READ_SEC_XZ: opening file: pickup_orlanskiS.ckptA.008.004.data
(PID.TID 0000.0001)  MDS_READ_SEC_XZ: opening file: pickup_orlanskiS.ckptA.009.004.data
(PID.TID 0000.0001)  MDS_READ_SEC_XZ: opening file: pickup_orlanskiS.ckptA.010.004.data
(PID.TID 0000.0001)  MDS_READ_SEC_XZ: opening file: pickup_orlanskiS.ckptA.011.004.data
(PID.TID 0000.0001)  MDS_READ_SEC_XZ: opening file: pickup_orlanskiS.ckptA.012.004.data
(PID.TID 0000.0001)  MDS_READ_SEC_XZ: opening file: pickup_orlanskiS.ckptA.013.004.data
(PID.TID 0000.0001)  MDS_READ_SEC_XZ: opening file: pickup_orlanskiS.ckptA.014.004.data
(PID.TID 0000.0001)  MDS_READ_SEC_XZ: opening file: pickup_orlanskiS.ckptA.015.004.data
(PID.TID 0000.0001)  MDS_READ_SEC_XZ: opening file: pickup_orlanskiS.ckptA.001.005.data
(PID.TID 0000.0001)  MDS_READ_SEC_XZ: opening file: pickup_orlanskiS.ckptA.002.005.data
(PID.TID 0000.0001)  MDS_READ_SEC_XZ: opening file: pickup_orlanskiS.ckptA.003.005.data
(PID.TID 0000.0001)  MDS_READ_SEC_XZ: opening file: pickup_orlanskiS.ckptA.004.005.data
(PID.TID 0000.0001)  MDS_READ_SEC_XZ: opening file: pickup_orlanskiS.ckptA.005.005.data
(PID.TID 0000.0001)  MDS_READ_SEC_XZ: opening file: pickup_orlanskiS.ckptA.006.005.data
(PID.TID 0000.0001)  MDS_READ_SEC_XZ: opening file: pickup_orlanskiS.ckptA.007.005.data
(PID.TID 0000.0001)  MDS_READ_SEC_XZ: opening file: pickup_orlanskiS.ckptA.008.005.data
(PID.TID 0000.0001)  MDS_READ_SEC_XZ: opening file: pickup_orlanskiS.ckptA.009.005.data
(PID.TID 0000.0001)  MDS_READ_SEC_XZ: opening file: pickup_orlanskiS.ckptA.010.005.data
(PID.TID 0000.0001)  MDS_READ_SEC_XZ: opening file: pickup_orlanskiS.ckptA.011.005.data
(PID.TID 0000.0001)  MDS_READ_SEC_XZ: opening file: pickup_orlanskiS.ckptA.012.005.data
(PID.TID 0000.0001)  MDS_READ_SEC_XZ: opening file: pickup_orlanskiS.ckptA.013.005.data
(PID.TID 0000.0001)  MDS_READ_SEC_XZ: opening file: pickup_orlanskiS.ckptA.014.005.data
(PID.TID 0000.0001)  MDS_READ_SEC_XZ: opening file: pickup_orlanskiS.ckptA.015.005.data
(PID.TID 0000.0001)  MDS_READ_SEC_XZ: opening file: pickup_orlanskiS.ckptA.001.006.data
(PID.TID 0000.0001)  MDS_READ_SEC_XZ: opening file: pickup_orlanskiS.ckptA.002.006.data
(PID.TID 0000.0001)  MDS_READ_SEC_XZ: opening file: pickup_orlanskiS.ckptA.003.006.data
(PID.TID 0000.0001)  MDS_READ_SEC_XZ: opening file: pickup_orlanskiS.ckptA.004.006.data
(PID.TID 0000.0001)  MDS_READ_SEC_XZ: opening file: pickup_orlanskiS.ckptA.005.006.data
(PID.TID 0000.0001)  MDS_READ_SEC_XZ: opening file: pickup_orlanskiS.ckptA.006.006.data
(PID.TID 0000.0001)  MDS_READ_SEC_XZ: opening file: pickup_orlanskiS.ckptA.007.006.data
(PID.TID 0000.0001)  MDS_READ_SEC_XZ: opening file: pickup_orlanskiS.ckptA.008.006.data
(PID.TID 0000.0001)  MDS_READ_SEC_XZ: opening file: pickup_orlanskiS.ckptA.009.006.data
(PID.TID 0000.0001)  MDS_READ_SEC_XZ: opening file: pickup_orlanskiS.ckptA.010.006.data
(PID.TID 0000.0001)  MDS_READ_SEC_XZ: opening file: pickup_orlanskiS.ckptA.011.006.data
(PID.TID 0000.0001)  MDS_READ_SEC_XZ: opening file: pickup_orlanskiS.ckptA.012.006.data
(PID.TID 0000.0001)  MDS_READ_SEC_XZ: opening file: pickup_orlanskiS.ckptA.013.006.data
(PID.TID 0000.0001)  MDS_READ_SEC_XZ: opening file: pickup_orlanskiS.ckptA.014.006.data
(PID.TID 0000.0001)  MDS_READ_SEC_XZ: opening file: pickup_orlanskiS.ckptA.015.006.data
(PID.TID 0000.0001)  MDS_READ_SEC_XZ: opening file: pickup_orlanskiS.ckptA.001.007.data
(PID.TID 0000.0001)  MDS_READ_SEC_XZ: opening file: pickup_orlanskiS.ckptA.002.007.data
(PID.TID 0000.0001)  MDS_READ_SEC_XZ: opening file: pickup_orlanskiS.ckptA.003.007.data
(PID.TID 0000.0001)  MDS_READ_SEC_XZ: opening file: pickup_orlanskiS.ckptA.004.007.data
(PID.TID 0000.0001)  MDS_READ_SEC_XZ: opening file: pickup_orlanskiS.ckptA.005.007.data
(PID.TID 0000.0001)  MDS_READ_SEC_XZ: opening file: pickup_orlanskiS.ckptA.006.007.data
(PID.TID 0000.0001)  MDS_READ_SEC_XZ: opening file: pickup_orlanskiS.ckptA.007.007.data
(PID.TID 0000.0001)  MDS_READ_SEC_XZ: opening file: pickup_orlanskiS.ckptA.008.007.data
(PID.TID 0000.0001)  MDS_READ_SEC_XZ: opening file: pickup_orlanskiS.ckptA.009.007.data
(PID.TID 0000.0001)  MDS_READ_SEC_XZ: opening file: pickup_orlanskiS.ckptA.010.007.data
(PID.TID 0000.0001)  MDS_READ_SEC_XZ: opening file: pickup_orlanskiS.ckptA.011.007.data
(PID.TID 0000.0001)  MDS_READ_SEC_XZ: opening file: pickup_orlanskiS.ckptA.012.007.data
(PID.TID 0000.0001)  MDS_READ_SEC_XZ: opening file: pickup_orlanskiS.ckptA.013.007.data
(PID.TID 0000.0001)  MDS_READ_SEC_XZ: opening file: pickup_orlanskiS.ckptA.014.007.data
(PID.TID 0000.0001)  MDS_READ_SEC_XZ: opening file: pickup_orlanskiS.ckptA.015.007.data
(PID.TID 0000.0001)  MDS_READ_SEC_XZ: opening file: pickup_orlanskiS.ckptA.001.008.data
(PID.TID 0000.0001)  MDS_READ_SEC_XZ: opening file: pickup_orlanskiS.ckptA.002.008.data
(PID.TID 0000.0001)  MDS_READ_SEC_XZ: opening file: pickup_orlanskiS.ckptA.003.008.data
(PID.TID 0000.0001)  MDS_READ_SEC_XZ: opening file: pickup_orlanskiS.ckptA.004.008.data
(PID.TID 0000.0001)  MDS_READ_SEC_XZ: opening file: pickup_orlanskiS.ckptA.005.008.data
(PID.TID 0000.0001)  MDS_READ_SEC_XZ: opening file: pickup_orlanskiS.ckptA.006.008.data
(PID.TID 0000.0001)  MDS_READ_SEC_XZ: opening file: pickup_orlanskiS.ckptA.007.008.data
(PID.TID 0000.0001)  MDS_READ_SEC_XZ: opening file: pickup_orlanskiS.ckptA.008.008.data
(PID.TID 0000.0001)  MDS_READ_SEC_XZ: opening file: pickup_orlanskiS.ckptA.009.008.data
(PID.TID 0000.0001)  MDS_READ_SEC_XZ: opening file: pickup_orlanskiS.ckptA.010.008.data
(PID.TID 0000.0001)  MDS_READ_SEC_XZ: opening file: pickup_orlanskiS.ckptA.011.008.data
(PID.TID 0000.0001)  MDS_READ_SEC_XZ: opening file: pickup_orlanskiS.ckptA.012.008.data
(PID.TID 0000.0001)  MDS_READ_SEC_XZ: opening file: pickup_orlanskiS.ckptA.013.008.data
(PID.TID 0000.0001)  MDS_READ_SEC_XZ: opening file: pickup_orlanskiS.ckptA.014.008.data
(PID.TID 0000.0001)  MDS_READ_SEC_XZ: opening file: pickup_orlanskiS.ckptA.015.008.data
(PID.TID 0000.0001)  MDS_READ_SEC_XZ: opening file: pickup_orlanskiS.ckptA.001.009.data
(PID.TID 0000.0001)  MDS_READ_SEC_XZ: opening file: pickup_orlanskiS.ckptA.002.009.data
(PID.TID 0000.0001)  MDS_READ_SEC_XZ: opening file: pickup_orlanskiS.ckptA.003.009.data
(PID.TID 0000.0001)  MDS_READ_SEC_XZ: opening file: pickup_orlanskiS.ckptA.004.009.data
(PID.TID 0000.0001)  MDS_READ_SEC_XZ: opening file: pickup_orlanskiS.ckptA.005.009.data
(PID.TID 0000.0001)  MDS_READ_SEC_XZ: opening file: pickup_orlanskiS.ckptA.006.009.data
(PID.TID 0000.0001)  MDS_READ_SEC_XZ: opening file: pickup_orlanskiS.ckptA.007.009.data
(PID.TID 0000.0001)  MDS_READ_SEC_XZ: opening file: pickup_orlanskiS.ckptA.008.009.data
(PID.TID 0000.0001)  MDS_READ_SEC_XZ: opening file: pickup_orlanskiS.ckptA.009.009.data
(PID.TID 0000.0001)  MDS_READ_SEC_XZ: opening file: pickup_orlanskiS.ckptA.010.009.data
(PID.TID 0000.0001)  MDS_READ_SEC_XZ: opening file: pickup_orlanskiS.ckptA.011.009.data
(PID.TID 0000.0001)  MDS_READ_SEC_XZ: opening file: pickup_orlanskiS.ckptA.012.009.data
(PID.TID 0000.0001)  MDS_READ_SEC_XZ: opening file: pickup_orlanskiS.ckptA.013.009.data
(PID.TID 0000.0001)  MDS_READ_SEC_XZ: opening file: pickup_orlanskiS.ckptA.014.009.data
(PID.TID 0000.0001)  MDS_READ_SEC_XZ: opening file: pickup_orlanskiS.ckptA.015.009.data
(PID.TID 0000.0001)  MDS_READ_SEC_XZ: opening file: pickup_orlanskiS.ckptA.001.010.data
(PID.TID 0000.0001)  MDS_READ_SEC_XZ: opening file: pickup_orlanskiS.ckptA.002.010.data
(PID.TID 0000.0001)  MDS_READ_SEC_XZ: opening file: pickup_orlanskiS.ckptA.003.010.data
(PID.TID 0000.0001)  MDS_READ_SEC_XZ: opening file: pickup_orlanskiS.ckptA.004.010.data
(PID.TID 0000.0001)  MDS_READ_SEC_XZ: opening file: pickup_orlanskiS.ckptA.005.010.data
(PID.TID 0000.0001)  MDS_READ_SEC_XZ: opening file: pickup_orlanskiS.ckptA.006.010.data
(PID.TID 0000.0001)  MDS_READ_SEC_XZ: opening file: pickup_orlanskiS.ckptA.007.010.data
(PID.TID 0000.0001)  MDS_READ_SEC_XZ: opening file: pickup_orlanskiS.ckptA.008.010.data
(PID.TID 0000.0001)  MDS_READ_SEC_XZ: opening file: pickup_orlanskiS.ckptA.009.010.data
(PID.TID 0000.0001)  MDS_READ_SEC_XZ: opening file: pickup_orlanskiS.ckptA.010.010.data
(PID.TID 0000.0001)  MDS_READ_SEC_XZ: opening file: pickup_orlanskiS.ckptA.011.010.data
(PID.TID 0000.0001)  MDS_READ_SEC_XZ: opening file: pickup_orlanskiS.ckptA.012.010.data
(PID.TID 0000.0001)  MDS_READ_SEC_XZ: opening file: pickup_orlanskiS.ckptA.013.010.data
(PID.TID 0000.0001)  MDS_READ_SEC_XZ: opening file: pickup_orlanskiS.ckptA.014.010.data
(PID.TID 0000.0001)  MDS_READ_SEC_XZ: opening file: pickup_orlanskiS.ckptA.015.010.data
(PID.TID 0000.0001)  MDS_READ_SEC_XZ: opening file: pickup_orlanskiS.ckptA.001.011.data
(PID.TID 0000.0001)  MDS_READ_SEC_XZ: opening file: pickup_orlanskiS.ckptA.002.011.data
(PID.TID 0000.0001)  MDS_READ_SEC_XZ: opening file: pickup_orlanskiS.ckptA.003.011.data
(PID.TID 0000.0001)  MDS_READ_SEC_XZ: opening file: pickup_orlanskiS.ckptA.004.011.data
(PID.TID 0000.0001)  MDS_READ_SEC_XZ: opening file: pickup_orlanskiS.ckptA.005.011.data
(PID.TID 0000.0001)  MDS_READ_SEC_XZ: opening file: pickup_orlanskiS.ckptA.006.011.data
(PID.TID 0000.0001)  MDS_READ_SEC_XZ: opening file: pickup_orlanskiS.ckptA.007.011.data
(PID.TID 0000.0001)  MDS_READ_SEC_XZ: opening file: pickup_orlanskiS.ckptA.008.011.data
(PID.TID 0000.0001)  MDS_READ_SEC_XZ: opening file: pickup_orlanskiS.ckptA.009.011.data
(PID.TID 0000.0001)  MDS_READ_SEC_XZ: opening file: pickup_orlanskiS.ckptA.010.011.data
(PID.TID 0000.0001)  MDS_READ_SEC_XZ: opening file: pickup_orlanskiS.ckptA.011.011.data
(PID.TID 0000.0001)  MDS_READ_SEC_XZ: opening file: pickup_orlanskiS.ckptA.012.011.data
(PID.TID 0000.0001)  MDS_READ_SEC_XZ: opening file: pickup_orlanskiS.ckptA.013.011.data
(PID.TID 0000.0001)  MDS_READ_SEC_XZ: opening file: pickup_orlanskiS.ckptA.014.011.data
(PID.TID 0000.0001)  MDS_READ_SEC_XZ: opening file: pickup_orlanskiS.ckptA.015.011.data
(PID.TID 0000.0001)  MDS_READ_SEC_XZ: opening file: pickup_orlanskiS.ckptA.001.012.data
(PID.TID 0000.0001)  MDS_READ_SEC_XZ: opening file: pickup_orlanskiS.ckptA.002.012.data
(PID.TID 0000.0001)  MDS_READ_SEC_XZ: opening file: pickup_orlanskiS.ckptA.003.012.data
(PID.TID 0000.0001)  MDS_READ_SEC_XZ: opening file: pickup_orlanskiS.ckptA.004.012.data
(PID.TID 0000.0001)  MDS_READ_SEC_XZ: opening file: pickup_orlanskiS.ckptA.005.012.data
(PID.TID 0000.0001)  MDS_READ_SEC_XZ: opening file: pickup_orlanskiS.ckptA.006.012.data
(PID.TID 0000.0001)  MDS_READ_SEC_XZ: opening file: pickup_orlanskiS.ckptA.007.012.data
(PID.TID 0000.0001)  MDS_READ_SEC_XZ: opening file: pickup_orlanskiS.ckptA.008.012.data
(PID.TID 0000.0001)  MDS_READ_SEC_XZ: opening file: pickup_orlanskiS.ckptA.009.012.data
(PID.TID 0000.0001)  MDS_READ_SEC_XZ: opening file: pickup_orlanskiS.ckptA.010.012.data
(PID.TID 0000.0001)  MDS_READ_SEC_XZ: opening file: pickup_orlanskiS.ckptA.011.012.data
(PID.TID 0000.0001)  MDS_READ_SEC_XZ: opening file: pickup_orlanskiS.ckptA.012.012.data
(PID.TID 0000.0001)  MDS_READ_SEC_XZ: opening file: pickup_orlanskiS.ckptA.013.012.data
(PID.TID 0000.0001)  MDS_READ_SEC_XZ: opening file: pickup_orlanskiS.ckptA.014.012.data
(PID.TID 0000.0001)  MDS_READ_SEC_XZ: opening file: pickup_orlanskiS.ckptA.015.012.data
(PID.TID 0000.0001)  MDS_READ_SEC_XZ: opening file: pickup_orlanskiS.ckptA.001.013.data
(PID.TID 0000.0001)  MDS_READ_SEC_XZ: opening file: pickup_orlanskiS.ckptA.002.013.data
(PID.TID 0000.0001)  MDS_READ_SEC_XZ: opening file: pickup_orlanskiS.ckptA.003.013.data
(PID.TID 0000.0001)  MDS_READ_SEC_XZ: opening file: pickup_orlanskiS.ckptA.004.013.data
(PID.TID 0000.0001)  MDS_READ_SEC_XZ: opening file: pickup_orlanskiS.ckptA.005.013.data
(PID.TID 0000.0001)  MDS_READ_SEC_XZ: opening file: pickup_orlanskiS.ckptA.006.013.data
(PID.TID 0000.0001)  MDS_READ_SEC_XZ: opening file: pickup_orlanskiS.ckptA.007.013.data
(PID.TID 0000.0001)  MDS_READ_SEC_XZ: opening file: pickup_orlanskiS.ckptA.008.013.data
(PID.TID 0000.0001)  MDS_READ_SEC_XZ: opening file: pickup_orlanskiS.ckptA.009.013.data
(PID.TID 0000.0001)  MDS_READ_SEC_XZ: opening file: pickup_orlanskiS.ckptA.010.013.data
(PID.TID 0000.0001)  MDS_READ_SEC_XZ: opening file: pickup_orlanskiS.ckptA.011.013.data
(PID.TID 0000.0001)  MDS_READ_SEC_XZ: opening file: pickup_orlanskiS.ckptA.012.013.data
(PID.TID 0000.0001)  MDS_READ_SEC_XZ: opening file: pickup_orlanskiS.ckptA.013.013.data
(PID.TID 0000.0001)  MDS_READ_SEC_XZ: opening file: pickup_orlanskiS.ckptA.014.013.data
(PID.TID 0000.0001)  MDS_READ_SEC_XZ: opening file: pickup_orlanskiS.ckptA.015.013.data
(PID.TID 0000.0001)  MDS_READ_SEC_XZ: opening file: pickup_orlanskiS.ckptA.001.014.data
(PID.TID 0000.0001)  MDS_READ_SEC_XZ: opening file: pickup_orlanskiS.ckptA.002.014.data
(PID.TID 0000.0001)  MDS_READ_SEC_XZ: opening file: pickup_orlanskiS.ckptA.003.014.data
(PID.TID 0000.0001)  MDS_READ_SEC_XZ: opening file: pickup_orlanskiS.ckptA.004.014.data
(PID.TID 0000.0001)  MDS_READ_SEC_XZ: opening file: pickup_orlanskiS.ckptA.005.014.data
(PID.TID 0000.0001)  MDS_READ_SEC_XZ: opening file: pickup_orlanskiS.ckptA.006.014.data
(PID.TID 0000.0001)  MDS_READ_SEC_XZ: opening file: pickup_orlanskiS.ckptA.007.014.data
(PID.TID 0000.0001)  MDS_READ_SEC_XZ: opening file: pickup_orlanskiS.ckptA.008.014.data
(PID.TID 0000.0001)  MDS_READ_SEC_XZ: opening file: pickup_orlanskiS.ckptA.009.014.data
(PID.TID 0000.0001)  MDS_READ_SEC_XZ: opening file: pickup_orlanskiS.ckptA.010.014.data
(PID.TID 0000.0001)  MDS_READ_SEC_XZ: opening file: pickup_orlanskiS.ckptA.011.014.data
(PID.TID 0000.0001)  MDS_READ_SEC_XZ: opening file: pickup_orlanskiS.ckptA.012.014.data
(PID.TID 0000.0001)  MDS_READ_SEC_XZ: opening file: pickup_orlanskiS.ckptA.013.014.data
(PID.TID 0000.0001)  MDS_READ_SEC_XZ: opening file: pickup_orlanskiS.ckptA.014.014.data
(PID.TID 0000.0001)  MDS_READ_SEC_XZ: opening file: pickup_orlanskiS.ckptA.015.014.data
(PID.TID 0000.0001)  MDS_READ_SEC_XZ: opening file: pickup_orlanskiS.ckptA.001.015.data
(PID.TID 0000.0001)  MDS_READ_SEC_XZ: opening file: pickup_orlanskiS.ckptA.002.015.data
(PID.TID 0000.0001)  MDS_READ_SEC_XZ: opening file: pickup_orlanskiS.ckptA.003.015.data
(PID.TID 0000.0001)  MDS_READ_SEC_XZ: opening file: pickup_orlanskiS.ckptA.004.015.data
(PID.TID 0000.0001)  MDS_READ_SEC_XZ: opening file: pickup_orlanskiS.ckptA.005.015.data
(PID.TID 0000.0001)  MDS_READ_SEC_XZ: opening file: pickup_orlanskiS.ckptA.006.015.data
(PID.TID 0000.0001)  MDS_READ_SEC_XZ: opening file: pickup_orlanskiS.ckptA.007.015.data
(PID.TID 0000.0001)  MDS_READ_SEC_XZ: opening file: pickup_orlanskiS.ckptA.008.015.data
(PID.TID 0000.0001)  MDS_READ_SEC_XZ: opening file: pickup_orlanskiS.ckptA.009.015.data
(PID.TID 0000.0001)  MDS_READ_SEC_XZ: opening file: pickup_orlanskiS.ckptA.010.015.data
(PID.TID 0000.0001)  MDS_READ_SEC_XZ: opening file: pickup_orlanskiS.ckptA.011.015.data
(PID.TID 0000.0001)  MDS_READ_SEC_XZ: opening file: pickup_orlanskiS.ckptA.012.015.data
(PID.TID 0000.0001)  MDS_READ_SEC_XZ: opening file: pickup_orlanskiS.ckptA.013.015.data
(PID.TID 0000.0001)  MDS_READ_SEC_XZ: opening file: pickup_orlanskiS.ckptA.014.015.data
(PID.TID 0000.0001)  MDS_READ_SEC_XZ: opening file: pickup_orlanskiS.ckptA.015.015.data
(PID.TID 0000.0001)  MDS_READ_SEC_XZ: opening file: pickup_orlanskiS.ckptA.001.001.data
(PID.TID 0000.0001)  MDS_READ_SEC_XZ: opening file: pickup_orlanskiS.ckptA.002.001.data
(PID.TID 0000.0001)  MDS_READ_SEC_XZ: opening file: pickup_orlanskiS.ckptA.003.001.data
(PID.TID 0000.0001)  MDS_READ_SEC_XZ: opening file: pickup_orlanskiS.ckptA.004.001.data
(PID.TID 0000.0001)  MDS_READ_SEC_XZ: opening file: pickup_orlanskiS.ckptA.005.001.data
(PID.TID 0000.0001)  MDS_READ_SEC_XZ: opening file: pickup_orlanskiS.ckptA.006.001.data
(PID.TID 0000.0001)  MDS_READ_SEC_XZ: opening file: pickup_orlanskiS.ckptA.007.001.data
(PID.TID 0000.0001)  MDS_READ_SEC_XZ: opening file: pickup_orlanskiS.ckptA.008.001.data
(PID.TID 0000.0001)  MDS_READ_SEC_XZ: opening file: pickup_orlanskiS.ckptA.009.001.data
(PID.TID 0000.0001)  MDS_READ_SEC_XZ: opening file: pickup_orlanskiS.ckptA.010.001.data
(PID.TID 0000.0001)  MDS_READ_SEC_XZ: opening file: pickup_orlanskiS.ckptA.011.001.data
(PID.TID 0000.0001)  MDS_READ_SEC_XZ: opening file: pickup_orlanskiS.ckptA.012.001.data
(PID.TID 0000.0001)  MDS_READ_SEC_XZ: opening file: pickup_orlanskiS.ckptA.013.001.data
(PID.TID 0000.0001)  MDS_READ_SEC_XZ: opening file: pickup_orlanskiS.ckptA.014.001.data
(PID.TID 0000.0001)  MDS_READ_SEC_XZ: opening file: pickup_orlanskiS.ckptA.015.001.data
(PID.TID 0000.0001)  MDS_READ_SEC_XZ: opening file: pickup_orlanskiS.ckptA.001.002.data
(PID.TID 0000.0001)  MDS_READ_SEC_XZ: opening file: pickup_orlanskiS.ckptA.002.002.data
(PID.TID 0000.0001)  MDS_READ_SEC_XZ: opening file: pickup_orlanskiS.ckptA.003.002.data
(PID.TID 0000.0001)  MDS_READ_SEC_XZ: opening file: pickup_orlanskiS.ckptA.004.002.data
(PID.TID 0000.0001)  MDS_READ_SEC_XZ: opening file: pickup_orlanskiS.ckptA.005.002.data
(PID.TID 0000.0001)  MDS_READ_SEC_XZ: opening file: pickup_orlanskiS.ckptA.006.002.data
(PID.TID 0000.0001)  MDS_READ_SEC_XZ: opening file: pickup_orlanskiS.ckptA.007.002.data
(PID.TID 0000.0001)  MDS_READ_SEC_XZ: opening file: pickup_orlanskiS.ckptA.008.002.data
(PID.TID 0000.0001)  MDS_READ_SEC_XZ: opening file: pickup_orlanskiS.ckptA.009.002.data
(PID.TID 0000.0001)  MDS_READ_SEC_XZ: opening file: pickup_orlanskiS.ckptA.010.002.data
(PID.TID 0000.0001)  MDS_READ_SEC_XZ: opening file: pickup_orlanskiS.ckptA.011.002.data
(PID.TID 0000.0001)  MDS_READ_SEC_XZ: opening file: pickup_orlanskiS.ckptA.012.002.data
(PID.TID 0000.0001)  MDS_READ_SEC_XZ: opening file: pickup_orlanskiS.ckptA.013.002.data
(PID.TID 0000.0001)  MDS_READ_SEC_XZ: opening file: pickup_orlanskiS.ckptA.014.002.data
(PID.TID 0000.0001)  MDS_READ_SEC_XZ: opening file: pickup_orlanskiS.ckptA.015.002.data
(PID.TID 0000.0001)  MDS_READ_SEC_XZ: opening file: pickup_orlanskiS.ckptA.001.003.data
(PID.TID 0000.0001)  MDS_READ_SEC_XZ: opening file: pickup_orlanskiS.ckptA.002.003.data
(PID.TID 0000.0001)  MDS_READ_SEC_XZ: opening file: pickup_orlanskiS.ckptA.003.003.data
(PID.TID 0000.0001)  MDS_READ_SEC_XZ: opening file: pickup_orlanskiS.ckptA.004.003.data
(PID.TID 0000.0001)  MDS_READ_SEC_XZ: opening file: pickup_orlanskiS.ckptA.005.003.data
(PID.TID 0000.0001)  MDS_READ_SEC_XZ: opening file: pickup_orlanskiS.ckptA.006.003.data
(PID.TID 0000.0001)  MDS_READ_SEC_XZ: opening file: pickup_orlanskiS.ckptA.007.003.data
(PID.TID 0000.0001)  MDS_READ_SEC_XZ: opening file: pickup_orlanskiS.ckptA.008.003.data
(PID.TID 0000.0001)  MDS_READ_SEC_XZ: opening file: pickup_orlanskiS.ckptA.009.003.data
(PID.TID 0000.0001)  MDS_READ_SEC_XZ: opening file: pickup_orlanskiS.ckptA.010.003.data
(PID.TID 0000.0001)  MDS_READ_SEC_XZ: opening file: pickup_orlanskiS.ckptA.011.003.data
(PID.TID 0000.0001)  MDS_READ_SEC_XZ: opening file: pickup_orlanskiS.ckptA.012.003.data
(PID.TID 0000.0001)  MDS_READ_SEC_XZ: opening file: pickup_orlanskiS.ckptA.013.003.data
(PID.TID 0000.0001)  MDS_READ_SEC_XZ: opening file: pickup_orlanskiS.ckptA.014.003.data
(PID.TID 0000.0001)  MDS_READ_SEC_XZ: opening file: pickup_orlanskiS.ckptA.015.003.data
(PID.TID 0000.0001)  MDS_READ_SEC_XZ: opening file: pickup_orlanskiS.ckptA.001.004.data
(PID.TID 0000.0001)  MDS_READ_SEC_XZ: opening file: pickup_orlanskiS.ckptA.002.004.data
(PID.TID 0000.0001)  MDS_READ_SEC_XZ: opening file: pickup_orlanskiS.ckptA.003.004.data
(PID.TID 0000.0001)  MDS_READ_SEC_XZ: opening file: pickup_orlanskiS.ckptA.004.004.data
(PID.TID 0000.0001)  MDS_READ_SEC_XZ: opening file: pickup_orlanskiS.ckptA.005.004.data
(PID.TID 0000.0001)  MDS_READ_SEC_XZ: opening file: pickup_orlanskiS.ckptA.006.004.data
(PID.TID 0000.0001)  MDS_READ_SEC_XZ: opening file: pickup_orlanskiS.ckptA.007.004.data
(PID.TID 0000.0001)  MDS_READ_SEC_XZ: opening file: pickup_orlanskiS.ckptA.008.004.data
(PID.TID 0000.0001)  MDS_READ_SEC_XZ: opening file: pickup_orlanskiS.ckptA.009.004.data
(PID.TID 0000.0001)  MDS_READ_SEC_XZ: opening file: pickup_orlanskiS.ckptA.010.004.data
(PID.TID 0000.0001)  MDS_READ_SEC_XZ: opening file: pickup_orlanskiS.ckptA.011.004.data
(PID.TID 0000.0001)  MDS_READ_SEC_XZ: opening file: pickup_orlanskiS.ckptA.012.004.data
(PID.TID 0000.0001)  MDS_READ_SEC_XZ: opening file: pickup_orlanskiS.ckptA.013.004.data
(PID.TID 0000.0001)  MDS_READ_SEC_XZ: opening file: pickup_orlanskiS.ckptA.014.004.data
(PID.TID 0000.0001)  MDS_READ_SEC_XZ: opening file: pickup_orlanskiS.ckptA.015.004.data
(PID.TID 0000.0001)  MDS_READ_SEC_XZ: opening file: pickup_orlanskiS.ckptA.001.005.data
(PID.TID 0000.0001)  MDS_READ_SEC_XZ: opening file: pickup_orlanskiS.ckptA.002.005.data
(PID.TID 0000.0001)  MDS_READ_SEC_XZ: opening file: pickup_orlanskiS.ckptA.003.005.data
(PID.TID 0000.0001)  MDS_READ_SEC_XZ: opening file: pickup_orlanskiS.ckptA.004.005.data
(PID.TID 0000.0001)  MDS_READ_SEC_XZ: opening file: pickup_orlanskiS.ckptA.005.005.data
(PID.TID 0000.0001)  MDS_READ_SEC_XZ: opening file: pickup_orlanskiS.ckptA.006.005.data
(PID.TID 0000.0001)  MDS_READ_SEC_XZ: opening file: pickup_orlanskiS.ckptA.007.005.data
(PID.TID 0000.0001)  MDS_READ_SEC_XZ: opening file: pickup_orlanskiS.ckptA.008.005.data
(PID.TID 0000.0001)  MDS_READ_SEC_XZ: opening file: pickup_orlanskiS.ckptA.009.005.data
(PID.TID 0000.0001)  MDS_READ_SEC_XZ: opening file: pickup_orlanskiS.ckptA.010.005.data
(PID.TID 0000.0001)  MDS_READ_SEC_XZ: opening file: pickup_orlanskiS.ckptA.011.005.data
(PID.TID 0000.0001)  MDS_READ_SEC_XZ: opening file: pickup_orlanskiS.ckptA.012.005.data
(PID.TID 0000.0001)  MDS_READ_SEC_XZ: opening file: pickup_orlanskiS.ckptA.013.005.data
(PID.TID 0000.0001)  MDS_READ_SEC_XZ: opening file: pickup_orlanskiS.ckptA.014.005.data
(PID.TID 0000.0001)  MDS_READ_SEC_XZ: opening file: pickup_orlanskiS.ckptA.015.005.data
(PID.TID 0000.0001)  MDS_READ_SEC_XZ: opening file: pickup_orlanskiS.ckptA.001.006.data
(PID.TID 0000.0001)  MDS_READ_SEC_XZ: opening file: pickup_orlanskiS.ckptA.002.006.data
(PID.TID 0000.0001)  MDS_READ_SEC_XZ: opening file: pickup_orlanskiS.ckptA.003.006.data
(PID.TID 0000.0001)  MDS_READ_SEC_XZ: opening file: pickup_orlanskiS.ckptA.004.006.data
(PID.TID 0000.0001)  MDS_READ_SEC_XZ: opening file: pickup_orlanskiS.ckptA.005.006.data
(PID.TID 0000.0001)  MDS_READ_SEC_XZ: opening file: pickup_orlanskiS.ckptA.006.006.data
(PID.TID 0000.0001)  MDS_READ_SEC_XZ: opening file: pickup_orlanskiS.ckptA.007.006.data
(PID.TID 0000.0001)  MDS_READ_SEC_XZ: opening file: pickup_orlanskiS.ckptA.008.006.data
(PID.TID 0000.0001)  MDS_READ_SEC_XZ: opening file: pickup_orlanskiS.ckptA.009.006.data
(PID.TID 0000.0001)  MDS_READ_SEC_XZ: opening file: pickup_orlanskiS.ckptA.010.006.data
(PID.TID 0000.0001)  MDS_READ_SEC_XZ: opening file: pickup_orlanskiS.ckptA.011.006.data
(PID.TID 0000.0001)  MDS_READ_SEC_XZ: opening file: pickup_orlanskiS.ckptA.012.006.data
(PID.TID 0000.0001)  MDS_READ_SEC_XZ: opening file: pickup_orlanskiS.ckptA.013.006.data
(PID.TID 0000.0001)  MDS_READ_SEC_XZ: opening file: pickup_orlanskiS.ckptA.014.006.data
(PID.TID 0000.0001)  MDS_READ_SEC_XZ: opening file: pickup_orlanskiS.ckptA.015.006.data
(PID.TID 0000.0001)  MDS_READ_SEC_XZ: opening file: pickup_orlanskiS.ckptA.001.007.data
(PID.TID 0000.0001)  MDS_READ_SEC_XZ: opening file: pickup_orlanskiS.ckptA.002.007.data
(PID.TID 0000.0001)  MDS_READ_SEC_XZ: opening file: pickup_orlanskiS.ckptA.003.007.data
(PID.TID 0000.0001)  MDS_READ_SEC_XZ: opening file: pickup_orlanskiS.ckptA.004.007.data
(PID.TID 0000.0001)  MDS_READ_SEC_XZ: opening file: pickup_orlanskiS.ckptA.005.007.data
(PID.TID 0000.0001)  MDS_READ_SEC_XZ: opening file: pickup_orlanskiS.ckptA.006.007.data
(PID.TID 0000.0001)  MDS_READ_SEC_XZ: opening file: pickup_orlanskiS.ckptA.007.007.data
(PID.TID 0000.0001)  MDS_READ_SEC_XZ: opening file: pickup_orlanskiS.ckptA.008.007.data
(PID.TID 0000.0001)  MDS_READ_SEC_XZ: opening file: pickup_orlanskiS.ckptA.009.007.data
(PID.TID 0000.0001)  MDS_READ_SEC_XZ: opening file: pickup_orlanskiS.ckptA.010.007.data
(PID.TID 0000.0001)  MDS_READ_SEC_XZ: opening file: pickup_orlanskiS.ckptA.011.007.data
(PID.TID 0000.0001)  MDS_READ_SEC_XZ: opening file: pickup_orlanskiS.ckptA.012.007.data
(PID.TID 0000.0001)  MDS_READ_SEC_XZ: opening file: pickup_orlanskiS.ckptA.013.007.data
(PID.TID 0000.0001)  MDS_READ_SEC_XZ: opening file: pickup_orlanskiS.ckptA.014.007.data
(PID.TID 0000.0001)  MDS_READ_SEC_XZ: opening file: pickup_orlanskiS.ckptA.015.007.data
(PID.TID 0000.0001)  MDS_READ_SEC_XZ: opening file: pickup_orlanskiS.ckptA.001.008.data
(PID.TID 0000.0001)  MDS_READ_SEC_XZ: opening file: pickup_orlanskiS.ckptA.002.008.data
(PID.TID 0000.0001)  MDS_READ_SEC_XZ: opening file: pickup_orlanskiS.ckptA.003.008.data
(PID.TID 0000.0001)  MDS_READ_SEC_XZ: opening file: pickup_orlanskiS.ckptA.004.008.data
(PID.TID 0000.0001)  MDS_READ_SEC_XZ: opening file: pickup_orlanskiS.ckptA.005.008.data
(PID.TID 0000.0001)  MDS_READ_SEC_XZ: opening file: pickup_orlanskiS.ckptA.006.008.data
(PID.TID 0000.0001)  MDS_READ_SEC_XZ: opening file: pickup_orlanskiS.ckptA.007.008.data
(PID.TID 0000.0001)  MDS_READ_SEC_XZ: opening file: pickup_orlanskiS.ckptA.008.008.data
(PID.TID 0000.0001)  MDS_READ_SEC_XZ: opening file: pickup_orlanskiS.ckptA.009.008.data
(PID.TID 0000.0001)  MDS_READ_SEC_XZ: opening file: pickup_orlanskiS.ckptA.010.008.data
(PID.TID 0000.0001)  MDS_READ_SEC_XZ: opening file: pickup_orlanskiS.ckptA.011.008.data
(PID.TID 0000.0001)  MDS_READ_SEC_XZ: opening file: pickup_orlanskiS.ckptA.012.008.data
(PID.TID 0000.0001)  MDS_READ_SEC_XZ: opening file: pickup_orlanskiS.ckptA.013.008.data
(PID.TID 0000.0001)  MDS_READ_SEC_XZ: opening file: pickup_orlanskiS.ckptA.014.008.data
(PID.TID 0000.0001)  MDS_READ_SEC_XZ: opening file: pickup_orlanskiS.ckptA.015.008.data
(PID.TID 0000.0001)  MDS_READ_SEC_XZ: opening file: pickup_orlanskiS.ckptA.001.009.data
(PID.TID 0000.0001)  MDS_READ_SEC_XZ: opening file: pickup_orlanskiS.ckptA.002.009.data
(PID.TID 0000.0001)  MDS_READ_SEC_XZ: opening file: pickup_orlanskiS.ckptA.003.009.data
(PID.TID 0000.0001)  MDS_READ_SEC_XZ: opening file: pickup_orlanskiS.ckptA.004.009.data
(PID.TID 0000.0001)  MDS_READ_SEC_XZ: opening file: pickup_orlanskiS.ckptA.005.009.data
(PID.TID 0000.0001)  MDS_READ_SEC_XZ: opening file: pickup_orlanskiS.ckptA.006.009.data
(PID.TID 0000.0001)  MDS_READ_SEC_XZ: opening file: pickup_orlanskiS.ckptA.007.009.data
(PID.TID 0000.0001)  MDS_READ_SEC_XZ: opening file: pickup_orlanskiS.ckptA.008.009.data
(PID.TID 0000.0001)  MDS_READ_SEC_XZ: opening file: pickup_orlanskiS.ckptA.009.009.data
(PID.TID 0000.0001)  MDS_READ_SEC_XZ: opening file: pickup_orlanskiS.ckptA.010.009.data
(PID.TID 0000.0001)  MDS_READ_SEC_XZ: opening file: pickup_orlanskiS.ckptA.011.009.data
(PID.TID 0000.0001)  MDS_READ_SEC_XZ: opening file: pickup_orlanskiS.ckptA.012.009.data
(PID.TID 0000.0001)  MDS_READ_SEC_XZ: opening file: pickup_orlanskiS.ckptA.013.009.data
(PID.TID 0000.0001)  MDS_READ_SEC_XZ: opening file: pickup_orlanskiS.ckptA.014.009.data
(PID.TID 0000.0001)  MDS_READ_SEC_XZ: opening file: pickup_orlanskiS.ckptA.015.009.data
(PID.TID 0000.0001)  MDS_READ_SEC_XZ: opening file: pickup_orlanskiS.ckptA.001.010.data
(PID.TID 0000.0001)  MDS_READ_SEC_XZ: opening file: pickup_orlanskiS.ckptA.002.010.data
(PID.TID 0000.0001)  MDS_READ_SEC_XZ: opening file: pickup_orlanskiS.ckptA.003.010.data
(PID.TID 0000.0001)  MDS_READ_SEC_XZ: opening file: pickup_orlanskiS.ckptA.004.010.data
(PID.TID 0000.0001)  MDS_READ_SEC_XZ: opening file: pickup_orlanskiS.ckptA.005.010.data
(PID.TID 0000.0001)  MDS_READ_SEC_XZ: opening file: pickup_orlanskiS.ckptA.006.010.data
(PID.TID 0000.0001)  MDS_READ_SEC_XZ: opening file: pickup_orlanskiS.ckptA.007.010.data
(PID.TID 0000.0001)  MDS_READ_SEC_XZ: opening file: pickup_orlanskiS.ckptA.008.010.data
(PID.TID 0000.0001)  MDS_READ_SEC_XZ: opening file: pickup_orlanskiS.ckptA.009.010.data
(PID.TID 0000.0001)  MDS_READ_SEC_XZ: opening file: pickup_orlanskiS.ckptA.010.010.data
(PID.TID 0000.0001)  MDS_READ_SEC_XZ: opening file: pickup_orlanskiS.ckptA.011.010.data
(PID.TID 0000.0001)  MDS_READ_SEC_XZ: opening file: pickup_orlanskiS.ckptA.012.010.data
(PID.TID 0000.0001)  MDS_READ_SEC_XZ: opening file: pickup_orlanskiS.ckptA.013.010.data
(PID.TID 0000.0001)  MDS_READ_SEC_XZ: opening file: pickup_orlanskiS.ckptA.014.010.data
(PID.TID 0000.0001)  MDS_READ_SEC_XZ: opening file: pickup_orlanskiS.ckptA.015.010.data
(PID.TID 0000.0001)  MDS_READ_SEC_XZ: opening file: pickup_orlanskiS.ckptA.001.011.data
(PID.TID 0000.0001)  MDS_READ_SEC_XZ: opening file: pickup_orlanskiS.ckptA.002.011.data
(PID.TID 0000.0001)  MDS_READ_SEC_XZ: opening file: pickup_orlanskiS.ckptA.003.011.data
(PID.TID 0000.0001)  MDS_READ_SEC_XZ: opening file: pickup_orlanskiS.ckptA.004.011.data
(PID.TID 0000.0001)  MDS_READ_SEC_XZ: opening file: pickup_orlanskiS.ckptA.005.011.data
(PID.TID 0000.0001)  MDS_READ_SEC_XZ: opening file: pickup_orlanskiS.ckptA.006.011.data
(PID.TID 0000.0001)  MDS_READ_SEC_XZ: opening file: pickup_orlanskiS.ckptA.007.011.data
(PID.TID 0000.0001)  MDS_READ_SEC_XZ: opening file: pickup_orlanskiS.ckptA.008.011.data
(PID.TID 0000.0001)  MDS_READ_SEC_XZ: opening file: pickup_orlanskiS.ckptA.009.011.data
(PID.TID 0000.0001)  MDS_READ_SEC_XZ: opening file: pickup_orlanskiS.ckptA.010.011.data
(PID.TID 0000.0001)  MDS_READ_SEC_XZ: opening file: pickup_orlanskiS.ckptA.011.011.data
(PID.TID 0000.0001)  MDS_READ_SEC_XZ: opening file: pickup_orlanskiS.ckptA.012.011.data
(PID.TID 0000.0001)  MDS_READ_SEC_XZ: opening file: pickup_orlanskiS.ckptA.013.011.data
(PID.TID 0000.0001)  MDS_READ_SEC_XZ: opening file: pickup_orlanskiS.ckptA.014.011.data
(PID.TID 0000.0001)  MDS_READ_SEC_XZ: opening file: pickup_orlanskiS.ckptA.015.011.data
(PID.TID 0000.0001)  MDS_READ_SEC_XZ: opening file: pickup_orlanskiS.ckptA.001.012.data
(PID.TID 0000.0001)  MDS_READ_SEC_XZ: opening file: pickup_orlanskiS.ckptA.002.012.data
(PID.TID 0000.0001)  MDS_READ_SEC_XZ: opening file: pickup_orlanskiS.ckptA.003.012.data
(PID.TID 0000.0001)  MDS_READ_SEC_XZ: opening file: pickup_orlanskiS.ckptA.004.012.data
(PID.TID 0000.0001)  MDS_READ_SEC_XZ: opening file: pickup_orlanskiS.ckptA.005.012.data
(PID.TID 0000.0001)  MDS_READ_SEC_XZ: opening file: pickup_orlanskiS.ckptA.006.012.data
(PID.TID 0000.0001)  MDS_READ_SEC_XZ: opening file: pickup_orlanskiS.ckptA.007.012.data
(PID.TID 0000.0001)  MDS_READ_SEC_XZ: opening file: pickup_orlanskiS.ckptA.008.012.data
(PID.TID 0000.0001)  MDS_READ_SEC_XZ: opening file: pickup_orlanskiS.ckptA.009.012.data
(PID.TID 0000.0001)  MDS_READ_SEC_XZ: opening file: pickup_orlanskiS.ckptA.010.012.data
(PID.TID 0000.0001)  MDS_READ_SEC_XZ: opening file: pickup_orlanskiS.ckptA.011.012.data
(PID.TID 0000.0001)  MDS_READ_SEC_XZ: opening file: pickup_orlanskiS.ckptA.012.012.data
(PID.TID 0000.0001)  MDS_READ_SEC_XZ: opening file: pickup_orlanskiS.ckptA.013.012.data
(PID.TID 0000.0001)  MDS_READ_SEC_XZ: opening file: pickup_orlanskiS.ckptA.014.012.data
(PID.TID 0000.0001)  MDS_READ_SEC_XZ: opening file: pickup_orlanskiS.ckptA.015.012.data
(PID.TID 0000.0001)  MDS_READ_SEC_XZ: opening file: pickup_orlanskiS.ckptA.001.013.data
(PID.TID 0000.0001)  MDS_READ_SEC_XZ: opening file: pickup_orlanskiS.ckptA.002.013.data
(PID.TID 0000.0001)  MDS_READ_SEC_XZ: opening file: pickup_orlanskiS.ckptA.003.013.data
(PID.TID 0000.0001)  MDS_READ_SEC_XZ: opening file: pickup_orlanskiS.ckptA.004.013.data
(PID.TID 0000.0001)  MDS_READ_SEC_XZ: opening file: pickup_orlanskiS.ckptA.005.013.data
(PID.TID 0000.0001)  MDS_READ_SEC_XZ: opening file: pickup_orlanskiS.ckptA.006.013.data
(PID.TID 0000.0001)  MDS_READ_SEC_XZ: opening file: pickup_orlanskiS.ckptA.007.013.data
(PID.TID 0000.0001)  MDS_READ_SEC_XZ: opening file: pickup_orlanskiS.ckptA.008.013.data
(PID.TID 0000.0001)  MDS_READ_SEC_XZ: opening file: pickup_orlanskiS.ckptA.009.013.data
(PID.TID 0000.0001)  MDS_READ_SEC_XZ: opening file: pickup_orlanskiS.ckptA.010.013.data
(PID.TID 0000.0001)  MDS_READ_SEC_XZ: opening file: pickup_orlanskiS.ckptA.011.013.data
(PID.TID 0000.0001)  MDS_READ_SEC_XZ: opening file: pickup_orlanskiS.ckptA.012.013.data
(PID.TID 0000.0001)  MDS_READ_SEC_XZ: opening file: pickup_orlanskiS.ckptA.013.013.data
(PID.TID 0000.0001)  MDS_READ_SEC_XZ: opening file: pickup_orlanskiS.ckptA.014.013.data
(PID.TID 0000.0001)  MDS_READ_SEC_XZ: opening file: pickup_orlanskiS.ckptA.015.013.data
(PID.TID 0000.0001)  MDS_READ_SEC_XZ: opening file: pickup_orlanskiS.ckptA.001.014.data
(PID.TID 0000.0001)  MDS_READ_SEC_XZ: opening file: pickup_orlanskiS.ckptA.002.014.data
(PID.TID 0000.0001)  MDS_READ_SEC_XZ: opening file: pickup_orlanskiS.ckptA.003.014.data
(PID.TID 0000.0001)  MDS_READ_SEC_XZ: opening file: pickup_orlanskiS.ckptA.004.014.data
(PID.TID 0000.0001)  MDS_READ_SEC_XZ: opening file: pickup_orlanskiS.ckptA.005.014.data
(PID.TID 0000.0001)  MDS_READ_SEC_XZ: opening file: pickup_orlanskiS.ckptA.006.014.data
(PID.TID 0000.0001)  MDS_READ_SEC_XZ: opening file: pickup_orlanskiS.ckptA.007.014.data
(PID.TID 0000.0001)  MDS_READ_SEC_XZ: opening file: pickup_orlanskiS.ckptA.008.014.data
(PID.TID 0000.0001)  MDS_READ_SEC_XZ: opening file: pickup_orlanskiS.ckptA.009.014.data
(PID.TID 0000.0001)  MDS_READ_SEC_XZ: opening file: pickup_orlanskiS.ckptA.010.014.data
(PID.TID 0000.0001)  MDS_READ_SEC_XZ: opening file: pickup_orlanskiS.ckptA.011.014.data
(PID.TID 0000.0001)  MDS_READ_SEC_XZ: opening file: pickup_orlanskiS.ckptA.012.014.data
(PID.TID 0000.0001)  MDS_READ_SEC_XZ: opening file: pickup_orlanskiS.ckptA.013.014.data
(PID.TID 0000.0001)  MDS_READ_SEC_XZ: opening file: pickup_orlanskiS.ckptA.014.014.data
(PID.TID 0000.0001)  MDS_READ_SEC_XZ: opening file: pickup_orlanskiS.ckptA.015.014.data
(PID.TID 0000.0001)  MDS_READ_SEC_XZ: opening file: pickup_orlanskiS.ckptA.001.015.data
(PID.TID 0000.0001)  MDS_READ_SEC_XZ: opening file: pickup_orlanskiS.ckptA.002.015.data
(PID.TID 0000.0001)  MDS_READ_SEC_XZ: opening file: pickup_orlanskiS.ckptA.003.015.data
(PID.TID 0000.0001)  MDS_READ_SEC_XZ: opening file: pickup_orlanskiS.ckptA.004.015.data
(PID.TID 0000.0001)  MDS_READ_SEC_XZ: opening file: pickup_orlanskiS.ckptA.005.015.data
(PID.TID 0000.0001)  MDS_READ_SEC_XZ: opening file: pickup_orlanskiS.ckptA.006.015.data
(PID.TID 0000.0001)  MDS_READ_SEC_XZ: opening file: pickup_orlanskiS.ckptA.007.015.data
(PID.TID 0000.0001)  MDS_READ_SEC_XZ: opening file: pickup_orlanskiS.ckptA.008.015.data
(PID.TID 0000.0001)  MDS_READ_SEC_XZ: opening file: pickup_orlanskiS.ckptA.009.015.data
(PID.TID 0000.0001)  MDS_READ_SEC_XZ: opening file: pickup_orlanskiS.ckptA.010.015.data
(PID.TID 0000.0001)  MDS_READ_SEC_XZ: opening file: pickup_orlanskiS.ckptA.011.015.data
(PID.TID 0000.0001)  MDS_READ_SEC_XZ: opening file: pickup_orlanskiS.ckptA.012.015.data
(PID.TID 0000.0001)  MDS_READ_SEC_XZ: opening file: pickup_orlanskiS.ckptA.013.015.data
(PID.TID 0000.0001)  MDS_READ_SEC_XZ: opening file: pickup_orlanskiS.ckptA.014.015.data
(PID.TID 0000.0001)  MDS_READ_SEC_XZ: opening file: pickup_orlanskiS.ckptA.015.015.data
(PID.TID 0000.0001)  MDS_READ_SEC_XZ: opening file: pickup_orlanskiS.ckptA.001.001.data
(PID.TID 0000.0001)  MDS_READ_SEC_XZ: opening file: pickup_orlanskiS.ckptA.002.001.data
(PID.TID 0000.0001)  MDS_READ_SEC_XZ: opening file: pickup_orlanskiS.ckptA.003.001.data
(PID.TID 0000.0001)  MDS_READ_SEC_XZ: opening file: pickup_orlanskiS.ckptA.004.001.data
(PID.TID 0000.0001)  MDS_READ_SEC_XZ: opening file: pickup_orlanskiS.ckptA.005.001.data
(PID.TID 0000.0001)  MDS_READ_SEC_XZ: opening file: pickup_orlanskiS.ckptA.006.001.data
(PID.TID 0000.0001)  MDS_READ_SEC_XZ: opening file: pickup_orlanskiS.ckptA.007.001.data
(PID.TID 0000.0001)  MDS_READ_SEC_XZ: opening file: pickup_orlanskiS.ckptA.008.001.data
(PID.TID 0000.0001)  MDS_READ_SEC_XZ: opening file: pickup_orlanskiS.ckptA.009.001.data
(PID.TID 0000.0001)  MDS_READ_SEC_XZ: opening file: pickup_orlanskiS.ckptA.010.001.data
(PID.TID 0000.0001)  MDS_READ_SEC_XZ: opening file: pickup_orlanskiS.ckptA.011.001.data
(PID.TID 0000.0001)  MDS_READ_SEC_XZ: opening file: pickup_orlanskiS.ckptA.012.001.data
(PID.TID 0000.0001)  MDS_READ_SEC_XZ: opening file: pickup_orlanskiS.ckptA.013.001.data
(PID.TID 0000.0001)  MDS_READ_SEC_XZ: opening file: pickup_orlanskiS.ckptA.014.001.data
(PID.TID 0000.0001)  MDS_READ_SEC_XZ: opening file: pickup_orlanskiS.ckptA.015.001.data
(PID.TID 0000.0001)  MDS_READ_SEC_XZ: opening file: pickup_orlanskiS.ckptA.001.002.data
(PID.TID 0000.0001)  MDS_READ_SEC_XZ: opening file: pickup_orlanskiS.ckptA.002.002.data
(PID.TID 0000.0001)  MDS_READ_SEC_XZ: opening file: pickup_orlanskiS.ckptA.003.002.data
(PID.TID 0000.0001)  MDS_READ_SEC_XZ: opening file: pickup_orlanskiS.ckptA.004.002.data
(PID.TID 0000.0001)  MDS_READ_SEC_XZ: opening file: pickup_orlanskiS.ckptA.005.002.data
(PID.TID 0000.0001)  MDS_READ_SEC_XZ: opening file: pickup_orlanskiS.ckptA.006.002.data
(PID.TID 0000.0001)  MDS_READ_SEC_XZ: opening file: pickup_orlanskiS.ckptA.007.002.data
(PID.TID 0000.0001)  MDS_READ_SEC_XZ: opening file: pickup_orlanskiS.ckptA.008.002.data
(PID.TID 0000.0001)  MDS_READ_SEC_XZ: opening file: pickup_orlanskiS.ckptA.009.002.data
(PID.TID 0000.0001)  MDS_READ_SEC_XZ: opening file: pickup_orlanskiS.ckptA.010.002.data
(PID.TID 0000.0001)  MDS_READ_SEC_XZ: opening file: pickup_orlanskiS.ckptA.011.002.data
(PID.TID 0000.0001)  MDS_READ_SEC_XZ: opening file: pickup_orlanskiS.ckptA.012.002.data
(PID.TID 0000.0001)  MDS_READ_SEC_XZ: opening file: pickup_orlanskiS.ckptA.013.002.data
(PID.TID 0000.0001)  MDS_READ_SEC_XZ: opening file: pickup_orlanskiS.ckptA.014.002.data
(PID.TID 0000.0001)  MDS_READ_SEC_XZ: opening file: pickup_orlanskiS.ckptA.015.002.data
(PID.TID 0000.0001)  MDS_READ_SEC_XZ: opening file: pickup_orlanskiS.ckptA.001.003.data
(PID.TID 0000.0001)  MDS_READ_SEC_XZ: opening file: pickup_orlanskiS.ckptA.002.003.data
(PID.TID 0000.0001)  MDS_READ_SEC_XZ: opening file: pickup_orlanskiS.ckptA.003.003.data
(PID.TID 0000.0001)  MDS_READ_SEC_XZ: opening file: pickup_orlanskiS.ckptA.004.003.data
(PID.TID 0000.0001)  MDS_READ_SEC_XZ: opening file: pickup_orlanskiS.ckptA.005.003.data
(PID.TID 0000.0001)  MDS_READ_SEC_XZ: opening file: pickup_orlanskiS.ckptA.006.003.data
(PID.TID 0000.0001)  MDS_READ_SEC_XZ: opening file: pickup_orlanskiS.ckptA.007.003.data
(PID.TID 0000.0001)  MDS_READ_SEC_XZ: opening file: pickup_orlanskiS.ckptA.008.003.data
(PID.TID 0000.0001)  MDS_READ_SEC_XZ: opening file: pickup_orlanskiS.ckptA.009.003.data
(PID.TID 0000.0001)  MDS_READ_SEC_XZ: opening file: pickup_orlanskiS.ckptA.010.003.data
(PID.TID 0000.0001)  MDS_READ_SEC_XZ: opening file: pickup_orlanskiS.ckptA.011.003.data
(PID.TID 0000.0001)  MDS_READ_SEC_XZ: opening file: pickup_orlanskiS.ckptA.012.003.data
(PID.TID 0000.0001)  MDS_READ_SEC_XZ: opening file: pickup_orlanskiS.ckptA.013.003.data
(PID.TID 0000.0001)  MDS_READ_SEC_XZ: opening file: pickup_orlanskiS.ckptA.014.003.data
(PID.TID 0000.0001)  MDS_READ_SEC_XZ: opening file: pickup_orlanskiS.ckptA.015.003.data
(PID.TID 0000.0001)  MDS_READ_SEC_XZ: opening file: pickup_orlanskiS.ckptA.001.004.data
(PID.TID 0000.0001)  MDS_READ_SEC_XZ: opening file: pickup_orlanskiS.ckptA.002.004.data
(PID.TID 0000.0001)  MDS_READ_SEC_XZ: opening file: pickup_orlanskiS.ckptA.003.004.data
(PID.TID 0000.0001)  MDS_READ_SEC_XZ: opening file: pickup_orlanskiS.ckptA.004.004.data
(PID.TID 0000.0001)  MDS_READ_SEC_XZ: opening file: pickup_orlanskiS.ckptA.005.004.data
(PID.TID 0000.0001)  MDS_READ_SEC_XZ: opening file: pickup_orlanskiS.ckptA.006.004.data
(PID.TID 0000.0001)  MDS_READ_SEC_XZ: opening file: pickup_orlanskiS.ckptA.007.004.data
(PID.TID 0000.0001)  MDS_READ_SEC_XZ: opening file: pickup_orlanskiS.ckptA.008.004.data
(PID.TID 0000.0001)  MDS_READ_SEC_XZ: opening file: pickup_orlanskiS.ckptA.009.004.data
(PID.TID 0000.0001)  MDS_READ_SEC_XZ: opening file: pickup_orlanskiS.ckptA.010.004.data
(PID.TID 0000.0001)  MDS_READ_SEC_XZ: opening file: pickup_orlanskiS.ckptA.011.004.data
(PID.TID 0000.0001)  MDS_READ_SEC_XZ: opening file: pickup_orlanskiS.ckptA.012.004.data
(PID.TID 0000.0001)  MDS_READ_SEC_XZ: opening file: pickup_orlanskiS.ckptA.013.004.data
(PID.TID 0000.0001)  MDS_READ_SEC_XZ: opening file: pickup_orlanskiS.ckptA.014.004.data
(PID.TID 0000.0001)  MDS_READ_SEC_XZ: opening file: pickup_orlanskiS.ckptA.015.004.data
(PID.TID 0000.0001)  MDS_READ_SEC_XZ: opening file: pickup_orlanskiS.ckptA.001.005.data
(PID.TID 0000.0001)  MDS_READ_SEC_XZ: opening file: pickup_orlanskiS.ckptA.002.005.data
(PID.TID 0000.0001)  MDS_READ_SEC_XZ: opening file: pickup_orlanskiS.ckptA.003.005.data
(PID.TID 0000.0001)  MDS_READ_SEC_XZ: opening file: pickup_orlanskiS.ckptA.004.005.data
(PID.TID 0000.0001)  MDS_READ_SEC_XZ: opening file: pickup_orlanskiS.ckptA.005.005.data
(PID.TID 0000.0001)  MDS_READ_SEC_XZ: opening file: pickup_orlanskiS.ckptA.006.005.data
(PID.TID 0000.0001)  MDS_READ_SEC_XZ: opening file: pickup_orlanskiS.ckptA.007.005.data
(PID.TID 0000.0001)  MDS_READ_SEC_XZ: opening file: pickup_orlanskiS.ckptA.008.005.data
(PID.TID 0000.0001)  MDS_READ_SEC_XZ: opening file: pickup_orlanskiS.ckptA.009.005.data
(PID.TID 0000.0001)  MDS_READ_SEC_XZ: opening file: pickup_orlanskiS.ckptA.010.005.data
(PID.TID 0000.0001)  MDS_READ_SEC_XZ: opening file: pickup_orlanskiS.ckptA.011.005.data
(PID.TID 0000.0001)  MDS_READ_SEC_XZ: opening file: pickup_orlanskiS.ckptA.012.005.data
(PID.TID 0000.0001)  MDS_READ_SEC_XZ: opening file: pickup_orlanskiS.ckptA.013.005.data
(PID.TID 0000.0001)  MDS_READ_SEC_XZ: opening file: pickup_orlanskiS.ckptA.014.005.data
(PID.TID 0000.0001)  MDS_READ_SEC_XZ: opening file: pickup_orlanskiS.ckptA.015.005.data
(PID.TID 0000.0001)  MDS_READ_SEC_XZ: opening file: pickup_orlanskiS.ckptA.001.006.data
(PID.TID 0000.0001)  MDS_READ_SEC_XZ: opening file: pickup_orlanskiS.ckptA.002.006.data
(PID.TID 0000.0001)  MDS_READ_SEC_XZ: opening file: pickup_orlanskiS.ckptA.003.006.data
(PID.TID 0000.0001)  MDS_READ_SEC_XZ: opening file: pickup_orlanskiS.ckptA.004.006.data
(PID.TID 0000.0001)  MDS_READ_SEC_XZ: opening file: pickup_orlanskiS.ckptA.005.006.data
(PID.TID 0000.0001)  MDS_READ_SEC_XZ: opening file: pickup_orlanskiS.ckptA.006.006.data
(PID.TID 0000.0001)  MDS_READ_SEC_XZ: opening file: pickup_orlanskiS.ckptA.007.006.data
(PID.TID 0000.0001)  MDS_READ_SEC_XZ: opening file: pickup_orlanskiS.ckptA.008.006.data
(PID.TID 0000.0001)  MDS_READ_SEC_XZ: opening file: pickup_orlanskiS.ckptA.009.006.data
(PID.TID 0000.0001)  MDS_READ_SEC_XZ: opening file: pickup_orlanskiS.ckptA.010.006.data
(PID.TID 0000.0001)  MDS_READ_SEC_XZ: opening file: pickup_orlanskiS.ckptA.011.006.data
(PID.TID 0000.0001)  MDS_READ_SEC_XZ: opening file: pickup_orlanskiS.ckptA.012.006.data
(PID.TID 0000.0001)  MDS_READ_SEC_XZ: opening file: pickup_orlanskiS.ckptA.013.006.data
(PID.TID 0000.0001)  MDS_READ_SEC_XZ: opening file: pickup_orlanskiS.ckptA.014.006.data
(PID.TID 0000.0001)  MDS_READ_SEC_XZ: opening file: pickup_orlanskiS.ckptA.015.006.data
(PID.TID 0000.0001)  MDS_READ_SEC_XZ: opening file: pickup_orlanskiS.ckptA.001.007.data
(PID.TID 0000.0001)  MDS_READ_SEC_XZ: opening file: pickup_orlanskiS.ckptA.002.007.data
(PID.TID 0000.0001)  MDS_READ_SEC_XZ: opening file: pickup_orlanskiS.ckptA.003.007.data
(PID.TID 0000.0001)  MDS_READ_SEC_XZ: opening file: pickup_orlanskiS.ckptA.004.007.data
(PID.TID 0000.0001)  MDS_READ_SEC_XZ: opening file: pickup_orlanskiS.ckptA.005.007.data
(PID.TID 0000.0001)  MDS_READ_SEC_XZ: opening file: pickup_orlanskiS.ckptA.006.007.data
(PID.TID 0000.0001)  MDS_READ_SEC_XZ: opening file: pickup_orlanskiS.ckptA.007.007.data
(PID.TID 0000.0001)  MDS_READ_SEC_XZ: opening file: pickup_orlanskiS.ckptA.008.007.data
(PID.TID 0000.0001)  MDS_READ_SEC_XZ: opening file: pickup_orlanskiS.ckptA.009.007.data
(PID.TID 0000.0001)  MDS_READ_SEC_XZ: opening file: pickup_orlanskiS.ckptA.010.007.data
(PID.TID 0000.0001)  MDS_READ_SEC_XZ: opening file: pickup_orlanskiS.ckptA.011.007.data
(PID.TID 0000.0001)  MDS_READ_SEC_XZ: opening file: pickup_orlanskiS.ckptA.012.007.data
(PID.TID 0000.0001)  MDS_READ_SEC_XZ: opening file: pickup_orlanskiS.ckptA.013.007.data
(PID.TID 0000.0001)  MDS_READ_SEC_XZ: opening file: pickup_orlanskiS.ckptA.014.007.data
(PID.TID 0000.0001)  MDS_READ_SEC_XZ: opening file: pickup_orlanskiS.ckptA.015.007.data
(PID.TID 0000.0001)  MDS_READ_SEC_XZ: opening file: pickup_orlanskiS.ckptA.001.008.data
(PID.TID 0000.0001)  MDS_READ_SEC_XZ: opening file: pickup_orlanskiS.ckptA.002.008.data
(PID.TID 0000.0001)  MDS_READ_SEC_XZ: opening file: pickup_orlanskiS.ckptA.003.008.data
(PID.TID 0000.0001)  MDS_READ_SEC_XZ: opening file: pickup_orlanskiS.ckptA.004.008.data
(PID.TID 0000.0001)  MDS_READ_SEC_XZ: opening file: pickup_orlanskiS.ckptA.005.008.data
(PID.TID 0000.0001)  MDS_READ_SEC_XZ: opening file: pickup_orlanskiS.ckptA.006.008.data
(PID.TID 0000.0001)  MDS_READ_SEC_XZ: opening file: pickup_orlanskiS.ckptA.007.008.data
(PID.TID 0000.0001)  MDS_READ_SEC_XZ: opening file: pickup_orlanskiS.ckptA.008.008.data
(PID.TID 0000.0001)  MDS_READ_SEC_XZ: opening file: pickup_orlanskiS.ckptA.009.008.data
(PID.TID 0000.0001)  MDS_READ_SEC_XZ: opening file: pickup_orlanskiS.ckptA.010.008.data
(PID.TID 0000.0001)  MDS_READ_SEC_XZ: opening file: pickup_orlanskiS.ckptA.011.008.data
(PID.TID 0000.0001)  MDS_READ_SEC_XZ: opening file: pickup_orlanskiS.ckptA.012.008.data
(PID.TID 0000.0001)  MDS_READ_SEC_XZ: opening file: pickup_orlanskiS.ckptA.013.008.data
(PID.TID 0000.0001)  MDS_READ_SEC_XZ: opening file: pickup_orlanskiS.ckptA.014.008.data
(PID.TID 0000.0001)  MDS_READ_SEC_XZ: opening file: pickup_orlanskiS.ckptA.015.008.data
(PID.TID 0000.0001)  MDS_READ_SEC_XZ: opening file: pickup_orlanskiS.ckptA.001.009.data
(PID.TID 0000.0001)  MDS_READ_SEC_XZ: opening file: pickup_orlanskiS.ckptA.002.009.data
(PID.TID 0000.0001)  MDS_READ_SEC_XZ: opening file: pickup_orlanskiS.ckptA.003.009.data
(PID.TID 0000.0001)  MDS_READ_SEC_XZ: opening file: pickup_orlanskiS.ckptA.004.009.data
(PID.TID 0000.0001)  MDS_READ_SEC_XZ: opening file: pickup_orlanskiS.ckptA.005.009.data
(PID.TID 0000.0001)  MDS_READ_SEC_XZ: opening file: pickup_orlanskiS.ckptA.006.009.data
(PID.TID 0000.0001)  MDS_READ_SEC_XZ: opening file: pickup_orlanskiS.ckptA.007.009.data
(PID.TID 0000.0001)  MDS_READ_SEC_XZ: opening file: pickup_orlanskiS.ckptA.008.009.data
(PID.TID 0000.0001)  MDS_READ_SEC_XZ: opening file: pickup_orlanskiS.ckptA.009.009.data
(PID.TID 0000.0001)  MDS_READ_SEC_XZ: opening file: pickup_orlanskiS.ckptA.010.009.data
(PID.TID 0000.0001)  MDS_READ_SEC_XZ: opening file: pickup_orlanskiS.ckptA.011.009.data
(PID.TID 0000.0001)  MDS_READ_SEC_XZ: opening file: pickup_orlanskiS.ckptA.012.009.data
(PID.TID 0000.0001)  MDS_READ_SEC_XZ: opening file: pickup_orlanskiS.ckptA.013.009.data
(PID.TID 0000.0001)  MDS_READ_SEC_XZ: opening file: pickup_orlanskiS.ckptA.014.009.data
(PID.TID 0000.0001)  MDS_READ_SEC_XZ: opening file: pickup_orlanskiS.ckptA.015.009.data
(PID.TID 0000.0001)  MDS_READ_SEC_XZ: opening file: pickup_orlanskiS.ckptA.001.010.data
(PID.TID 0000.0001)  MDS_READ_SEC_XZ: opening file: pickup_orlanskiS.ckptA.002.010.data
(PID.TID 0000.0001)  MDS_READ_SEC_XZ: opening file: pickup_orlanskiS.ckptA.003.010.data
(PID.TID 0000.0001)  MDS_READ_SEC_XZ: opening file: pickup_orlanskiS.ckptA.004.010.data
(PID.TID 0000.0001)  MDS_READ_SEC_XZ: opening file: pickup_orlanskiS.ckptA.005.010.data
(PID.TID 0000.0001)  MDS_READ_SEC_XZ: opening file: pickup_orlanskiS.ckptA.006.010.data
(PID.TID 0000.0001)  MDS_READ_SEC_XZ: opening file: pickup_orlanskiS.ckptA.007.010.data
(PID.TID 0000.0001)  MDS_READ_SEC_XZ: opening file: pickup_orlanskiS.ckptA.008.010.data
(PID.TID 0000.0001)  MDS_READ_SEC_XZ: opening file: pickup_orlanskiS.ckptA.009.010.data
(PID.TID 0000.0001)  MDS_READ_SEC_XZ: opening file: pickup_orlanskiS.ckptA.010.010.data
(PID.TID 0000.0001)  MDS_READ_SEC_XZ: opening file: pickup_orlanskiS.ckptA.011.010.data
(PID.TID 0000.0001)  MDS_READ_SEC_XZ: opening file: pickup_orlanskiS.ckptA.012.010.data
(PID.TID 0000.0001)  MDS_READ_SEC_XZ: opening file: pickup_orlanskiS.ckptA.013.010.data
(PID.TID 0000.0001)  MDS_READ_SEC_XZ: opening file: pickup_orlanskiS.ckptA.014.010.data
(PID.TID 0000.0001)  MDS_READ_SEC_XZ: opening file: pickup_orlanskiS.ckptA.015.010.data
(PID.TID 0000.0001)  MDS_READ_SEC_XZ: opening file: pickup_orlanskiS.ckptA.001.011.data
(PID.TID 0000.0001)  MDS_READ_SEC_XZ: opening file: pickup_orlanskiS.ckptA.002.011.data
(PID.TID 0000.0001)  MDS_READ_SEC_XZ: opening file: pickup_orlanskiS.ckptA.003.011.data
(PID.TID 0000.0001)  MDS_READ_SEC_XZ: opening file: pickup_orlanskiS.ckptA.004.011.data
(PID.TID 0000.0001)  MDS_READ_SEC_XZ: opening file: pickup_orlanskiS.ckptA.005.011.data
(PID.TID 0000.0001)  MDS_READ_SEC_XZ: opening file: pickup_orlanskiS.ckptA.006.011.data
(PID.TID 0000.0001)  MDS_READ_SEC_XZ: opening file: pickup_orlanskiS.ckptA.007.011.data
(PID.TID 0000.0001)  MDS_READ_SEC_XZ: opening file: pickup_orlanskiS.ckptA.008.011.data
(PID.TID 0000.0001)  MDS_READ_SEC_XZ: opening file: pickup_orlanskiS.ckptA.009.011.data
(PID.TID 0000.0001)  MDS_READ_SEC_XZ: opening file: pickup_orlanskiS.ckptA.010.011.data
(PID.TID 0000.0001)  MDS_READ_SEC_XZ: opening file: pickup_orlanskiS.ckptA.011.011.data
(PID.TID 0000.0001)  MDS_READ_SEC_XZ: opening file: pickup_orlanskiS.ckptA.012.011.data
(PID.TID 0000.0001)  MDS_READ_SEC_XZ: opening file: pickup_orlanskiS.ckptA.013.011.data
(PID.TID 0000.0001)  MDS_READ_SEC_XZ: opening file: pickup_orlanskiS.ckptA.014.011.data
(PID.TID 0000.0001)  MDS_READ_SEC_XZ: opening file: pickup_orlanskiS.ckptA.015.011.data
(PID.TID 0000.0001)  MDS_READ_SEC_XZ: opening file: pickup_orlanskiS.ckptA.001.012.data
(PID.TID 0000.0001)  MDS_READ_SEC_XZ: opening file: pickup_orlanskiS.ckptA.002.012.data
(PID.TID 0000.0001)  MDS_READ_SEC_XZ: opening file: pickup_orlanskiS.ckptA.003.012.data
(PID.TID 0000.0001)  MDS_READ_SEC_XZ: opening file: pickup_orlanskiS.ckptA.004.012.data
(PID.TID 0000.0001)  MDS_READ_SEC_XZ: opening file: pickup_orlanskiS.ckptA.005.012.data
(PID.TID 0000.0001)  MDS_READ_SEC_XZ: opening file: pickup_orlanskiS.ckptA.006.012.data
(PID.TID 0000.0001)  MDS_READ_SEC_XZ: opening file: pickup_orlanskiS.ckptA.007.012.data
(PID.TID 0000.0001)  MDS_READ_SEC_XZ: opening file: pickup_orlanskiS.ckptA.008.012.data
(PID.TID 0000.0001)  MDS_READ_SEC_XZ: opening file: pickup_orlanskiS.ckptA.009.012.data
(PID.TID 0000.0001)  MDS_READ_SEC_XZ: opening file: pickup_orlanskiS.ckptA.010.012.data
(PID.TID 0000.0001)  MDS_READ_SEC_XZ: opening file: pickup_orlanskiS.ckptA.011.012.data
(PID.TID 0000.0001)  MDS_READ_SEC_XZ: opening file: pickup_orlanskiS.ckptA.012.012.data
(PID.TID 0000.0001)  MDS_READ_SEC_XZ: opening file: pickup_orlanskiS.ckptA.013.012.data
(PID.TID 0000.0001)  MDS_READ_SEC_XZ: opening file: pickup_orlanskiS.ckptA.014.012.data
(PID.TID 0000.0001)  MDS_READ_SEC_XZ: opening file: pickup_orlanskiS.ckptA.015.012.data
(PID.TID 0000.0001)  MDS_READ_SEC_XZ: opening file: pickup_orlanskiS.ckptA.001.013.data
(PID.TID 0000.0001)  MDS_READ_SEC_XZ: opening file: pickup_orlanskiS.ckptA.002.013.data
(PID.TID 0000.0001)  MDS_READ_SEC_XZ: opening file: pickup_orlanskiS.ckptA.003.013.data
(PID.TID 0000.0001)  MDS_READ_SEC_XZ: opening file: pickup_orlanskiS.ckptA.004.013.data
(PID.TID 0000.0001)  MDS_READ_SEC_XZ: opening file: pickup_orlanskiS.ckptA.005.013.data
(PID.TID 0000.0001)  MDS_READ_SEC_XZ: opening file: pickup_orlanskiS.ckptA.006.013.data
(PID.TID 0000.0001)  MDS_READ_SEC_XZ: opening file: pickup_orlanskiS.ckptA.007.013.data
(PID.TID 0000.0001)  MDS_READ_SEC_XZ: opening file: pickup_orlanskiS.ckptA.008.013.data
(PID.TID 0000.0001)  MDS_READ_SEC_XZ: opening file: pickup_orlanskiS.ckptA.009.013.data
(PID.TID 0000.0001)  MDS_READ_SEC_XZ: opening file: pickup_orlanskiS.ckptA.010.013.data
(PID.TID 0000.0001)  MDS_READ_SEC_XZ: opening file: pickup_orlanskiS.ckptA.011.013.data
(PID.TID 0000.0001)  MDS_READ_SEC_XZ: opening file: pickup_orlanskiS.ckptA.012.013.data
(PID.TID 0000.0001)  MDS_READ_SEC_XZ: opening file: pickup_orlanskiS.ckptA.013.013.data
(PID.TID 0000.0001)  MDS_READ_SEC_XZ: opening file: pickup_orlanskiS.ckptA.014.013.data
(PID.TID 0000.0001)  MDS_READ_SEC_XZ: opening file: pickup_orlanskiS.ckptA.015.013.data
(PID.TID 0000.0001)  MDS_READ_SEC_XZ: opening file: pickup_orlanskiS.ckptA.001.014.data
(PID.TID 0000.0001)  MDS_READ_SEC_XZ: opening file: pickup_orlanskiS.ckptA.002.014.data
(PID.TID 0000.0001)  MDS_READ_SEC_XZ: opening file: pickup_orlanskiS.ckptA.003.014.data
(PID.TID 0000.0001)  MDS_READ_SEC_XZ: opening file: pickup_orlanskiS.ckptA.004.014.data
(PID.TID 0000.0001)  MDS_READ_SEC_XZ: opening file: pickup_orlanskiS.ckptA.005.014.data
(PID.TID 0000.0001)  MDS_READ_SEC_XZ: opening file: pickup_orlanskiS.ckptA.006.014.data
(PID.TID 0000.0001)  MDS_READ_SEC_XZ: opening file: pickup_orlanskiS.ckptA.007.014.data
(PID.TID 0000.0001)  MDS_READ_SEC_XZ: opening file: pickup_orlanskiS.ckptA.008.014.data
(PID.TID 0000.0001)  MDS_READ_SEC_XZ: opening file: pickup_orlanskiS.ckptA.009.014.data
(PID.TID 0000.0001)  MDS_READ_SEC_XZ: opening file: pickup_orlanskiS.ckptA.010.014.data
(PID.TID 0000.0001)  MDS_READ_SEC_XZ: opening file: pickup_orlanskiS.ckptA.011.014.data
(PID.TID 0000.0001)  MDS_READ_SEC_XZ: opening file: pickup_orlanskiS.ckptA.012.014.data
(PID.TID 0000.0001)  MDS_READ_SEC_XZ: opening file: pickup_orlanskiS.ckptA.013.014.data
(PID.TID 0000.0001)  MDS_READ_SEC_XZ: opening file: pickup_orlanskiS.ckptA.014.014.data
(PID.TID 0000.0001)  MDS_READ_SEC_XZ: opening file: pickup_orlanskiS.ckptA.015.014.data
(PID.TID 0000.0001)  MDS_READ_SEC_XZ: opening file: pickup_orlanskiS.ckptA.001.015.data
(PID.TID 0000.0001)  MDS_READ_SEC_XZ: opening file: pickup_orlanskiS.ckptA.002.015.data
(PID.TID 0000.0001)  MDS_READ_SEC_XZ: opening file: pickup_orlanskiS.ckptA.003.015.data
(PID.TID 0000.0001)  MDS_READ_SEC_XZ: opening file: pickup_orlanskiS.ckptA.004.015.data
(PID.TID 0000.0001)  MDS_READ_SEC_XZ: opening file: pickup_orlanskiS.ckptA.005.015.data
(PID.TID 0000.0001)  MDS_READ_SEC_XZ: opening file: pickup_orlanskiS.ckptA.006.015.data
(PID.TID 0000.0001)  MDS_READ_SEC_XZ: opening file: pickup_orlanskiS.ckptA.007.015.data
(PID.TID 0000.0001)  MDS_READ_SEC_XZ: opening file: pickup_orlanskiS.ckptA.008.015.data
(PID.TID 0000.0001)  MDS_READ_SEC_XZ: opening file: pickup_orlanskiS.ckptA.009.015.data
(PID.TID 0000.0001)  MDS_READ_SEC_XZ: opening file: pickup_orlanskiS.ckptA.010.015.data
(PID.TID 0000.0001)  MDS_READ_SEC_XZ: opening file: pickup_orlanskiS.ckptA.011.015.data
(PID.TID 0000.0001)  MDS_READ_SEC_XZ: opening file: pickup_orlanskiS.ckptA.012.015.data
(PID.TID 0000.0001)  MDS_READ_SEC_XZ: opening file: pickup_orlanskiS.ckptA.013.015.data
(PID.TID 0000.0001)  MDS_READ_SEC_XZ: opening file: pickup_orlanskiS.ckptA.014.015.data
(PID.TID 0000.0001)  MDS_READ_SEC_XZ: opening file: pickup_orlanskiS.ckptA.015.015.data
(PID.TID 0000.0001) // =======================================================
(PID.TID 0000.0001) // Model current state
(PID.TID 0000.0001) // =======================================================
(PID.TID 0000.0001) 
(PID.TID 0000.0001) // =======================================================
(PID.TID 0000.0001) // Begin MONITOR dynamic field statistics
(PID.TID 0000.0001) // =======================================================
(PID.TID 0000.0001) %MON time_tsnumber                =                   600
(PID.TID 0000.0001) %MON time_secondsf                =   3.6000000000000E+04
(PID.TID 0000.0001) %MON dynstat_eta_max              =   8.0392731602995E-03
(PID.TID 0000.0001) %MON dynstat_eta_min              =  -5.5717360385111E-03
(PID.TID 0000.0001) %MON dynstat_eta_mean             =  -2.7995484360436E-19
(PID.TID 0000.0001) %MON dynstat_eta_sd               =   1.6096555315888E-03
(PID.TID 0000.0001) %MON dynstat_eta_del2             =   4.0264908127098E-07
(PID.TID 0000.0001) %MON dynstat_uvel_max             =   2.7478394527539E-02
(PID.TID 0000.0001) %MON dynstat_uvel_min             =  -5.8184460366800E-02
(PID.TID 0000.0001) %MON dynstat_uvel_mean            =   2.1088923316786E-05
(PID.TID 0000.0001) %MON dynstat_uvel_sd              =   5.3459390416213E-04
(PID.TID 0000.0001) %MON dynstat_uvel_del2            =   7.1415770764786E-07
(PID.TID 0000.0001) %MON dynstat_vvel_max             =   1.0636829176665E-01
(PID.TID 0000.0001) %MON dynstat_vvel_min             =  -7.6374158125814E-02
(PID.TID 0000.0001) %MON dynstat_vvel_mean            =  -3.8797516105491E-06
(PID.TID 0000.0001) %MON dynstat_vvel_sd              =   4.4156322910145E-03
(PID.TID 0000.0001) %MON dynstat_vvel_del2            =   7.1678486594849E-07
(PID.TID 0000.0001) %MON dynstat_wvel_max             =   1.2904617233582E-04
(PID.TID 0000.0001) %MON dynstat_wvel_min             =  -2.2735511689858E-04
(PID.TID 0000.0001) %MON dynstat_wvel_mean            =  -3.7067934986369E-07
(PID.TID 0000.0001) %MON dynstat_wvel_sd              =   2.1678441209138E-06
(PID.TID 0000.0001) %MON dynstat_wvel_del2            =   5.8134257617445E-09
(PID.TID 0000.0001) %MON dynstat_theta_max            =   1.6579932104764E+01
(PID.TID 0000.0001) %MON dynstat_theta_min            =   4.1845264910736E+00
(PID.TID 0000.0001) %MON dynstat_theta_mean           =   8.3857247648001E+00
(PID.TID 0000.0001) %MON dynstat_theta_sd             =   3.8617756154503E+00
(PID.TID 0000.0001) %MON dynstat_theta_del2           =   6.1288616372212E-07
(PID.TID 0000.0001) %MON dynstat_salt_max             =   3.4476107012679E+01
(PID.TID 0000.0001) %MON dynstat_salt_min             =   3.3629607199622E+01
(PID.TID 0000.0001) %MON dynstat_salt_mean            =   3.4127681730892E+01
(PID.TID 0000.0001) %MON dynstat_salt_sd              =   2.8356666216660E-01
(PID.TID 0000.0001) %MON dynstat_salt_del2            =   2.2987609181538E-08
(PID.TID 0000.0001) %MON trAdv_CFL_u_max              =   0.0000000000000E+00
(PID.TID 0000.0001) %MON trAdv_CFL_v_max              =   0.0000000000000E+00
(PID.TID 0000.0001) %MON trAdv_CFL_w_max              =   0.0000000000000E+00
(PID.TID 0000.0001) %MON advcfl_uvel_max              =   1.7528519679703E-03
(PID.TID 0000.0001) %MON advcfl_vvel_max              =   2.7264599735130E-03
(PID.TID 0000.0001) %MON advcfl_wvel_max              =   4.4918701909149E-03
(PID.TID 0000.0001) %MON advcfl_W_hf_max              =   4.7726120778471E-03
(PID.TID 0000.0001) %MON pe_b_mean                    =   1.9406776773575E-08
(PID.TID 0000.0001) %MON ke_max                       =   4.8790783254709E-03
(PID.TID 0000.0001) %MON ke_mean                      =   9.8527277042884E-06
(PID.TID 0000.0001) %MON ke_vol                       =   1.0416098804501E+14
(PID.TID 0000.0001) %MON vort_r_min                   =  -4.9984589192190E-05
(PID.TID 0000.0001) %MON vort_r_max                   =   3.8643152124610E-05
(PID.TID 0000.0001) %MON vort_a_mean                  =   6.9456055905738E-04
(PID.TID 0000.0001) %MON vort_a_sd                    =   7.8574454125764E-07
(PID.TID 0000.0001) %MON vort_p_mean                  =   7.0575608364114E-04
(PID.TID 0000.0001) %MON vort_p_sd                    =   1.5174910816051E-04
(PID.TID 0000.0001) %MON surfExpan_theta_mean         =   1.1612872001997E-12
(PID.TID 0000.0001) %MON surfExpan_salt_mean          =   7.3419530062909E-21
(PID.TID 0000.0001) // =======================================================
(PID.TID 0000.0001) // End MONITOR dynamic field statistics
(PID.TID 0000.0001) // =======================================================
(PID.TID 0000.0001) // =======================================================
(PID.TID 0000.0001) // Begin OBCS MONITOR field statistics
(PID.TID 0000.0001) // =======================================================
(PID.TID 0000.0001) %MON obc_S_vVel_max               =   8.5177994075146E-02
(PID.TID 0000.0001) %MON obc_S_vVel_min               =  -3.9376837975513E-04
(PID.TID 0000.0001) %MON obc_S_vVel_mean              =   9.7991213948751E-20
(PID.TID 0000.0001) %MON obc_S_vVel_sd                =   3.8235325389808E-03
(PID.TID 0000.0001) %MON obc_S_vVel_Int               =   4.6838977141306E-11
(PID.TID 0000.0001) // =======================================================
(PID.TID 0000.0001) // End OBCS MONITOR field statistics
(PID.TID 0000.0001) // =======================================================
(PID.TID 0000.0001) SOLVE_FOR_PRESSURE: putPmEinXvector =    F
 cg2d: Sum(rhs),rhsMax =   1.46194167882641E-12  8.80484358532893E-03
 cg2d: Sum(rhs),rhsMax =   1.91135995919467E-12  9.05870287941575E-03
 cg2d: Sum(rhs),rhsMax =   1.69642078162724E-12  9.33349266933246E-03
 cg2d: Sum(rhs),rhsMax =   1.23101528970437E-12  9.58615947298064E-03
 cg2d: Sum(rhs),rhsMax =   1.40865097364440E-12  9.81514786904360E-03
 cg2d: Sum(rhs),rhsMax =   1.28252963804698E-12  1.00189925211049E-02
 cg2d: Sum(rhs),rhsMax =   1.18305365504057E-12  1.02277734611705E-02
 cg2d: Sum(rhs),rhsMax =   8.73967564984923E-13  1.04335480549152E-02
 cg2d: Sum(rhs),rhsMax =   1.32338584535319E-12  1.06115079358650E-02
 cg2d: Sum(rhs),rhsMax =   1.37490019369579E-12  1.07603371426770E-02
 cg2d: Sum(rhs),rhsMax =   1.34292577058659E-12  1.08788408189859E-02
 cg2d: Sum(rhs),rhsMax =   1.27720056752878E-12  1.09659526374838E-02
 cg2d: Sum(rhs),rhsMax =   1.05693231944315E-12  1.10207414344654E-02
 cg2d: Sum(rhs),rhsMax =   1.35536026846239E-12  1.10424170082039E-02
 cg2d: Sum(rhs),rhsMax =   1.50635059981141E-12  1.10303350428306E-02
 cg2d: Sum(rhs),rhsMax =   1.09778852674935E-12  1.09840011277874E-02
 cg2d: Sum(rhs),rhsMax =   1.49391610193561E-12  1.09030738535405E-02
 cg2d: Sum(rhs),rhsMax =   1.44773082411120E-12  1.07873669691091E-02
 cg2d: Sum(rhs),rhsMax =   1.30739863379858E-12  1.06368506008106E-02
 cg2d: Sum(rhs),rhsMax =   1.22390986234677E-12  1.05364976231182E-02
(PID.TID 0000.0001)      cg2d_init_res =   9.29373612419940E-01
(PID.TID 0000.0001)      cg2d_iters(min,last) =      -1      33
(PID.TID 0000.0001)      cg2d_last_res =   6.93230187670578E-08
(PID.TID 0000.0001) // =======================================================
(PID.TID 0000.0001) // Begin MONITOR dynamic field statistics
(PID.TID 0000.0001) // =======================================================
(PID.TID 0000.0001) %MON time_tsnumber                =                   620
(PID.TID 0000.0001) %MON time_secondsf                =   3.7200000000000E+04
(PID.TID 0000.0001) %MON dynstat_eta_max              =   9.5291128410046E-03
(PID.TID 0000.0001) %MON dynstat_eta_min              =  -5.1969152306026E-03
(PID.TID 0000.0001) %MON dynstat_eta_mean             =  -4.2597050713135E-19
(PID.TID 0000.0001) %MON dynstat_eta_sd               =   1.4484431935625E-03
(PID.TID 0000.0001) %MON dynstat_eta_del2             =   3.5306830126813E-07
(PID.TID 0000.0001) %MON dynstat_uvel_max             =   8.3115631992279E-02
(PID.TID 0000.0001) %MON dynstat_uvel_min             =  -5.0659093733400E-02
(PID.TID 0000.0001) %MON dynstat_uvel_mean            =   3.1142334940133E-07
(PID.TID 0000.0001) %MON dynstat_uvel_sd              =   3.5229911968328E-03
(PID.TID 0000.0001) %MON dynstat_uvel_del2            =   6.6944617581482E-07
(PID.TID 0000.0001) %MON dynstat_vvel_max             =   8.8853007964263E-02
(PID.TID 0000.0001) %MON dynstat_vvel_min             =  -7.7823523158924E-02
(PID.TID 0000.0001) %MON dynstat_vvel_mean            =  -1.3463066279595E-05
(PID.TID 0000.0001) %MON dynstat_vvel_sd              =   2.6901544558303E-03
(PID.TID 0000.0001) %MON dynstat_vvel_del2            =   7.1526487484516E-07
(PID.TID 0000.0001) %MON dynstat_wvel_max             =   1.2056357724087E-04
(PID.TID 0000.0001) %MON dynstat_wvel_min             =  -2.3376303201514E-04
(PID.TID 0000.0001) %MON dynstat_wvel_mean            =  -2.7801821030026E-07
(PID.TID 0000.0001) %MON dynstat_wvel_sd              =   2.0918708433883E-06
(PID.TID 0000.0001) %MON dynstat_wvel_del2            =   5.8640849864370E-09
(PID.TID 0000.0001) %MON dynstat_theta_max            =   1.6579909243918E+01
(PID.TID 0000.0001) %MON dynstat_theta_min            =   4.1845313274892E+00
(PID.TID 0000.0001) %MON dynstat_theta_mean           =   8.3857320237701E+00
(PID.TID 0000.0001) %MON dynstat_theta_sd             =   3.8617799990595E+00
(PID.TID 0000.0001) %MON dynstat_theta_del2           =   6.1555487018506E-07
(PID.TID 0000.0001) %MON dynstat_salt_max             =   3.4476106519729E+01
(PID.TID 0000.0001) %MON dynstat_salt_min             =   3.3629593800807E+01
(PID.TID 0000.0001) %MON dynstat_salt_mean            =   3.4127681288834E+01
(PID.TID 0000.0001) %MON dynstat_salt_sd              =   2.8356683768195E-01
(PID.TID 0000.0001) %MON dynstat_salt_del2            =   2.3421930187299E-08
(PID.TID 0000.0001) %MON trAdv_CFL_u_max              =   2.4226301897871E-03
(PID.TID 0000.0001) %MON trAdv_CFL_v_max              =   2.3316175526639E-03
(PID.TID 0000.0001) %MON trAdv_CFL_w_max              =   4.7762509215608E-03
(PID.TID 0000.0001) %MON advcfl_uvel_max              =   2.5039228376154E-03
(PID.TID 0000.0001) %MON advcfl_vvel_max              =   2.2775036217771E-03
(PID.TID 0000.0001) %MON advcfl_wvel_max              =   4.4709678557039E-03
(PID.TID 0000.0001) %MON advcfl_W_hf_max              =   4.7504033466854E-03
(PID.TID 0000.0001) %MON pe_b_mean                    =   1.5714134001304E-08
(PID.TID 0000.0001) %MON ke_max                       =   5.8473392309930E-03
(PID.TID 0000.0001) %MON ke_mean                      =   9.8010921463261E-06
(PID.TID 0000.0001) %MON ke_vol                       =   1.0416098804501E+14
(PID.TID 0000.0001) %MON vort_r_min                   =  -5.0660663230000E-05
(PID.TID 0000.0001) %MON vort_r_max                   =   4.1716251840308E-05
(PID.TID 0000.0001) %MON vort_a_mean                  =   6.9456055905738E-04
(PID.TID 0000.0001) %MON vort_a_sd                    =   7.9332643518581E-07
(PID.TID 0000.0001) %MON vort_p_mean                  =   7.0575608364114E-04
(PID.TID 0000.0001) %MON vort_p_sd                    =   1.5174694173666E-04
(PID.TID 0000.0001) %MON surfExpan_theta_mean         =  -4.9588005094624E-12
(PID.TID 0000.0001) %MON surfExpan_salt_mean          =  -6.0153695970545E-21
(PID.TID 0000.0001) // =======================================================
(PID.TID 0000.0001) // End MONITOR dynamic field statistics
(PID.TID 0000.0001) // =======================================================
(PID.TID 0000.0001) // =======================================================
(PID.TID 0000.0001) // Begin OBCS MONITOR field statistics
(PID.TID 0000.0001) // =======================================================
(PID.TID 0000.0001) %MON obc_S_vVel_max               =   6.2827094219883E-02
(PID.TID 0000.0001) %MON obc_S_vVel_min               =  -3.3236598121746E-04
(PID.TID 0000.0001) %MON obc_S_vVel_mean              =  -7.7001591058029E-20
(PID.TID 0000.0001) %MON obc_S_vVel_sd                =   2.8216071581223E-03
(PID.TID 0000.0001) %MON obc_S_vVel_Int               =  -3.6806113712373E-11
(PID.TID 0000.0001) // =======================================================
(PID.TID 0000.0001) // End OBCS MONITOR field statistics
(PID.TID 0000.0001) // =======================================================
 cg2d: Sum(rhs),rhsMax =   1.42819089887780E-12  1.05258604380097E-02
 cg2d: Sum(rhs),rhsMax =   9.92983473224740E-13  1.04889748262979E-02
 cg2d: Sum(rhs),rhsMax =   1.76392234152445E-12  1.04254207492421E-02
 cg2d: Sum(rhs),rhsMax =   1.57740487338742E-12  1.03348842707374E-02
 cg2d: Sum(rhs),rhsMax =   1.55964130499342E-12  1.02171586184406E-02
 cg2d: Sum(rhs),rhsMax =   1.58451030074502E-12  1.00721446852055E-02
 cg2d: Sum(rhs),rhsMax =   1.23634436022257E-12  9.89985099978826E-03
 cg2d: Sum(rhs),rhsMax =   1.97175609173428E-12  9.70039319795681E-03
 cg2d: Sum(rhs),rhsMax =   1.50279788613261E-12  9.47399302632416E-03
 cg2d: Sum(rhs),rhsMax =   1.95043980966148E-12  9.22097691146542E-03
 cg2d: Sum(rhs),rhsMax =   1.80833126250945E-12  8.94177412627067E-03
 cg2d: Sum(rhs),rhsMax =   1.77280412572145E-12  8.63691458414606E-03
 cg2d: Sum(rhs),rhsMax =   1.66977542903624E-12  8.30702628973837E-03
 cg2d: Sum(rhs),rhsMax =   2.14583906199550E-12  7.95283247247231E-03
 cg2d: Sum(rhs),rhsMax =   2.11386463888630E-12  7.68468725180826E-03
 cg2d: Sum(rhs),rhsMax =   2.10320649784990E-12  7.44996942350845E-03
 cg2d: Sum(rhs),rhsMax =   1.91846538655227E-12  7.19851563106680E-03
 cg2d: Sum(rhs),rhsMax =   1.70174985214544E-12  6.93057430459953E-03
 cg2d: Sum(rhs),rhsMax =   2.60769184023957E-12  6.64644999977421E-03
 cg2d: Sum(rhs),rhsMax =   2.50821585723315E-12  6.35555945680016E-03
(PID.TID 0000.0001)      cg2d_init_res =   1.57969411998303E+00
(PID.TID 0000.0001)      cg2d_iters(min,last) =      -1      34
(PID.TID 0000.0001)      cg2d_last_res =   6.28823896357841E-08
(PID.TID 0000.0001) // =======================================================
(PID.TID 0000.0001) // Begin MONITOR dynamic field statistics
(PID.TID 0000.0001) // =======================================================
(PID.TID 0000.0001) %MON time_tsnumber                =                   640
(PID.TID 0000.0001) %MON time_secondsf                =   3.8400000000000E+04
(PID.TID 0000.0001) %MON dynstat_eta_max              =   5.7470562315122E-03
(PID.TID 0000.0001) %MON dynstat_eta_min              =  -4.1310901382395E-03
(PID.TID 0000.0001) %MON dynstat_eta_mean             =  -4.6842117622691E-19
(PID.TID 0000.0001) %MON dynstat_eta_sd               =   1.1906132823050E-03
(PID.TID 0000.0001) %MON dynstat_eta_del2             =   3.4226063698232E-07
(PID.TID 0000.0001) %MON dynstat_uvel_max             =   1.0926832348137E-01
(PID.TID 0000.0001) %MON dynstat_uvel_min             =  -4.6336773257408E-02
(PID.TID 0000.0001) %MON dynstat_uvel_mean            =  -6.5080707485567E-06
(PID.TID 0000.0001) %MON dynstat_uvel_sd              =   4.3242981880095E-03
(PID.TID 0000.0001) %MON dynstat_uvel_del2            =   6.5347468413961E-07
(PID.TID 0000.0001) %MON dynstat_vvel_max             =   5.7565269316128E-02
(PID.TID 0000.0001) %MON dynstat_vvel_min             =  -7.3206456542279E-02
(PID.TID 0000.0001) %MON dynstat_vvel_mean            =   1.7276121887398E-05
(PID.TID 0000.0001) %MON dynstat_vvel_sd              =   8.9621776429969E-04
(PID.TID 0000.0001) %MON dynstat_vvel_del2            =   6.8876464445088E-07
(PID.TID 0000.0001) %MON dynstat_wvel_max             =   1.6462344095480E-04
(PID.TID 0000.0001) %MON dynstat_wvel_min             =  -2.1213277803291E-04
(PID.TID 0000.0001) %MON dynstat_wvel_mean            =  -5.0345223294457E-09
(PID.TID 0000.0001) %MON dynstat_wvel_sd              =   1.9533048470548E-06
(PID.TID 0000.0001) %MON dynstat_wvel_del2            =   5.9889613783576E-09
(PID.TID 0000.0001) %MON dynstat_theta_max            =   1.6579887652216E+01
(PID.TID 0000.0001) %MON dynstat_theta_min            =   4.1845323827257E+00
(PID.TID 0000.0001) %MON dynstat_theta_mean           =   8.3857350566830E+00
(PID.TID 0000.0001) %MON dynstat_theta_sd             =   3.8617808706469E+00
(PID.TID 0000.0001) %MON dynstat_theta_del2           =   6.1214252803469E-07
(PID.TID 0000.0001) %MON dynstat_salt_max             =   3.4476106412174E+01
(PID.TID 0000.0001) %MON dynstat_salt_min             =   3.3629598289172E+01
(PID.TID 0000.0001) %MON dynstat_salt_mean            =   3.4127681101351E+01
(PID.TID 0000.0001) %MON dynstat_salt_sd              =   2.8356686377429E-01
(PID.TID 0000.0001) %MON dynstat_salt_del2            =   2.3614392409557E-08
(PID.TID 0000.0001) %MON trAdv_CFL_u_max              =   3.2932164726798E-03
(PID.TID 0000.0001) %MON trAdv_CFL_v_max              =   1.8828530053068E-03
(PID.TID 0000.0001) %MON trAdv_CFL_w_max              =   4.9338908246801E-03
(PID.TID 0000.0001) %MON advcfl_uvel_max              =   3.2917929399654E-03
(PID.TID 0000.0001) %MON advcfl_vvel_max              =   1.8764871910869E-03
(PID.TID 0000.0001) %MON advcfl_wvel_max              =   4.6373649824173E-03
(PID.TID 0000.0001) %MON advcfl_W_hf_max              =   4.9272002938184E-03
(PID.TID 0000.0001) %MON pe_b_mean                    =   1.0617663662109E-08
(PID.TID 0000.0001) %MON ke_max                       =   6.1956961732835E-03
(PID.TID 0000.0001) %MON ke_mean                      =   9.7488108925222E-06
(PID.TID 0000.0001) %MON ke_vol                       =   1.0416098804501E+14
(PID.TID 0000.0001) %MON vort_r_min                   =  -4.6299305465105E-05
(PID.TID 0000.0001) %MON vort_r_max                   =   4.5763781315064E-05
(PID.TID 0000.0001) %MON vort_a_mean                  =   6.9456055905738E-04
(PID.TID 0000.0001) %MON vort_a_sd                    =   8.0344892145251E-07
(PID.TID 0000.0001) %MON vort_p_mean                  =   7.0575608364114E-04
(PID.TID 0000.0001) %MON vort_p_sd                    =   1.5174637780791E-04
(PID.TID 0000.0001) %MON surfExpan_theta_mean         =  -5.6788925139516E-12
(PID.TID 0000.0001) %MON surfExpan_salt_mean          =   3.9311469562500E-22
(PID.TID 0000.0001) // =======================================================
(PID.TID 0000.0001) // End MONITOR dynamic field statistics
(PID.TID 0000.0001) // =======================================================
(PID.TID 0000.0001) // =======================================================
(PID.TID 0000.0001) // Begin OBCS MONITOR field statistics
(PID.TID 0000.0001) // =======================================================
(PID.TID 0000.0001) %MON obc_S_vVel_max               =   1.2357857855374E-04
(PID.TID 0000.0001) %MON obc_S_vVel_min               =  -4.3379947403004E-04
(PID.TID 0000.0001) %MON obc_S_vVel_mean              =   1.2486744495897E-21
(PID.TID 0000.0001) %MON obc_S_vVel_sd                =   2.7844671801580E-05
(PID.TID 0000.0001) %MON obc_S_vVel_Int               =   5.9685589803848E-13
(PID.TID 0000.0001) // =======================================================
(PID.TID 0000.0001) // End OBCS MONITOR field statistics
(PID.TID 0000.0001) // =======================================================
 cg2d: Sum(rhs),rhsMax =   2.71782596428238E-12  6.18086669797691E-03
 cg2d: Sum(rhs),rhsMax =   2.48689957516035E-12  5.99817041821077E-03
 cg2d: Sum(rhs),rhsMax =   2.95585778076202E-12  5.80737961068759E-03
 cg2d: Sum(rhs),rhsMax =   2.73203681899759E-12  5.60840639002817E-03
 cg2d: Sum(rhs),rhsMax =   2.48689957516035E-12  5.66907594598800E-03
 cg2d: Sum(rhs),rhsMax =   2.51532128459075E-12  5.76850635729462E-03
 cg2d: Sum(rhs),rhsMax =   1.89714910447947E-12  5.87222229415132E-03
 cg2d: Sum(rhs),rhsMax =   2.64677169070637E-12  6.00112721745587E-03
 cg2d: Sum(rhs),rhsMax =   2.59348098552437E-12  6.19655780559446E-03
 cg2d: Sum(rhs),rhsMax =   2.30926389122033E-12  6.53763974567125E-03
 cg2d: Sum(rhs),rhsMax =   1.98951966012828E-12  6.85832542023018E-03
 cg2d: Sum(rhs),rhsMax =   2.27018404075352E-12  7.15779198436633E-03
 cg2d: Sum(rhs),rhsMax =   1.90070181815827E-12  7.50917738268113E-03
 cg2d: Sum(rhs),rhsMax =   1.75148784364865E-12  7.95267340348483E-03
 cg2d: Sum(rhs),rhsMax =   1.37490019369579E-12  8.37140669494351E-03
 cg2d: Sum(rhs),rhsMax =   1.46727074934461E-12  8.76427083921149E-03
 cg2d: Sum(rhs),rhsMax =   1.89004367712187E-12  9.13027143505772E-03
 cg2d: Sum(rhs),rhsMax =   1.84741111297626E-12  9.46852885851553E-03
 cg2d: Sum(rhs),rhsMax =   1.61826108069363E-12  9.77828049617833E-03
 cg2d: Sum(rhs),rhsMax =   2.11741735256510E-12  1.00588824554423E-02
(PID.TID 0000.0001)      cg2d_init_res =   8.55583619507268E-01
(PID.TID 0000.0001)      cg2d_iters(min,last) =      -1      32
(PID.TID 0000.0001)      cg2d_last_res =   9.31543667388145E-08
(PID.TID 0000.0001) // =======================================================
(PID.TID 0000.0001) // Begin MONITOR dynamic field statistics
(PID.TID 0000.0001) // =======================================================
(PID.TID 0000.0001) %MON time_tsnumber                =                   660
(PID.TID 0000.0001) %MON time_secondsf                =   3.9600000000000E+04
(PID.TID 0000.0001) %MON dynstat_eta_max              =   6.4829711449592E-03
(PID.TID 0000.0001) %MON dynstat_eta_min              =  -9.0890833911281E-03
(PID.TID 0000.0001) %MON dynstat_eta_mean             =  -3.0593758072320E-19
(PID.TID 0000.0001) %MON dynstat_eta_sd               =   1.2110300487623E-03
(PID.TID 0000.0001) %MON dynstat_eta_del2             =   3.3362885791097E-07
(PID.TID 0000.0001) %MON dynstat_uvel_max             =   7.8084997688338E-02
(PID.TID 0000.0001) %MON dynstat_uvel_min             =  -5.0021623087205E-02
(PID.TID 0000.0001) %MON dynstat_uvel_mean            =   1.8201719220611E-05
(PID.TID 0000.0001) %MON dynstat_uvel_sd              =   2.3151099755062E-03
(PID.TID 0000.0001) %MON dynstat_uvel_del2            =   6.4039970760895E-07
(PID.TID 0000.0001) %MON dynstat_vvel_max             =   3.2334359012886E-02
(PID.TID 0000.0001) %MON dynstat_vvel_min             =  -9.2401718863416E-02
(PID.TID 0000.0001) %MON dynstat_vvel_mean            =   4.0003529951249E-05
(PID.TID 0000.0001) %MON dynstat_vvel_sd              =   3.7499033240842E-03
(PID.TID 0000.0001) %MON dynstat_vvel_del2            =   6.6809989785502E-07
(PID.TID 0000.0001) %MON dynstat_wvel_max             =   1.8063744929584E-04
(PID.TID 0000.0001) %MON dynstat_wvel_min             =  -1.8529567868973E-04
(PID.TID 0000.0001) %MON dynstat_wvel_mean            =   2.7248284889416E-07
(PID.TID 0000.0001) %MON dynstat_wvel_sd              =   2.1013961640253E-06
(PID.TID 0000.0001) %MON dynstat_wvel_del2            =   6.0291650780320E-09
(PID.TID 0000.0001) %MON dynstat_theta_max            =   1.6579866973677E+01
(PID.TID 0000.0001) %MON dynstat_theta_min            =   4.1845282816040E+00
(PID.TID 0000.0001) %MON dynstat_theta_mean           =   8.3857318860578E+00
(PID.TID 0000.0001) %MON dynstat_theta_sd             =   3.8617766878845E+00
(PID.TID 0000.0001) %MON dynstat_theta_del2           =   6.0830511682793E-07
(PID.TID 0000.0001) %MON dynstat_salt_max             =   3.4476106830179E+01
(PID.TID 0000.0001) %MON dynstat_salt_min             =   3.3629617548422E+01
(PID.TID 0000.0001) %MON dynstat_salt_mean            =   3.4127681290507E+01
(PID.TID 0000.0001) %MON dynstat_salt_sd              =   2.8356667609744E-01
(PID.TID 0000.0001) %MON dynstat_salt_del2            =   2.3694263442566E-08
(PID.TID 0000.0001) %MON trAdv_CFL_u_max              =   2.4347029558513E-03
(PID.TID 0000.0001) %MON trAdv_CFL_v_max              =   2.3101082999388E-03
(PID.TID 0000.0001) %MON trAdv_CFL_w_max              =   4.5649651630882E-03
(PID.TID 0000.0001) %MON advcfl_uvel_max              =   2.3523710799088E-03
(PID.TID 0000.0001) %MON advcfl_vvel_max              =   2.3685157030033E-03
(PID.TID 0000.0001) %MON advcfl_wvel_max              =   4.2708820986888E-03
(PID.TID 0000.0001) %MON advcfl_W_hf_max              =   4.5378122298568E-03
(PID.TID 0000.0001) %MON pe_b_mean                    =   1.0984931576952E-08
(PID.TID 0000.0001) %MON ke_max                       =   5.3269263778307E-03
(PID.TID 0000.0001) %MON ke_mean                      =   9.6892436806282E-06
(PID.TID 0000.0001) %MON ke_vol                       =   1.0416098804501E+14
(PID.TID 0000.0001) %MON vort_r_min                   =  -4.4084979050841E-05
(PID.TID 0000.0001) %MON vort_r_max                   =   4.1364366533880E-05
(PID.TID 0000.0001) %MON vort_a_mean                  =   6.9456055905738E-04
(PID.TID 0000.0001) %MON vort_a_sd                    =   7.9348590410773E-07
(PID.TID 0000.0001) %MON vort_p_mean                  =   7.0575608364114E-04
(PID.TID 0000.0001) %MON vort_p_sd                    =   1.5174928594466E-04
(PID.TID 0000.0001) %MON surfExpan_theta_mean         =  -7.5501529944881E-13
(PID.TID 0000.0001) %MON surfExpan_salt_mean          =   1.1335998313841E-21
(PID.TID 0000.0001) // =======================================================
(PID.TID 0000.0001) // End MONITOR dynamic field statistics
(PID.TID 0000.0001) // =======================================================
(PID.TID 0000.0001) // =======================================================
(PID.TID 0000.0001) // Begin OBCS MONITOR field statistics
(PID.TID 0000.0001) // =======================================================
(PID.TID 0000.0001) %MON obc_S_vVel_max               =   2.7494832673665E-04
(PID.TID 0000.0001) %MON obc_S_vVel_min               =  -6.3278121195308E-02
(PID.TID 0000.0001) %MON obc_S_vVel_mean              =   1.8194970551164E-20
(PID.TID 0000.0001) %MON obc_S_vVel_sd                =   2.8420965702448E-03
(PID.TID 0000.0001) %MON obc_S_vVel_Int               =   8.6970430857036E-12
(PID.TID 0000.0001) // =======================================================
(PID.TID 0000.0001) // End OBCS MONITOR field statistics
(PID.TID 0000.0001) // =======================================================
 cg2d: Sum(rhs),rhsMax =   1.60227386913903E-12  1.03098107523407E-02
 cg2d: Sum(rhs),rhsMax =   2.14939177567430E-12  1.05897884658421E-02
 cg2d: Sum(rhs),rhsMax =   1.58273394390562E-12  1.08441704808445E-02
 cg2d: Sum(rhs),rhsMax =   1.39088740525040E-12  1.10672000762310E-02
 cg2d: Sum(rhs),rhsMax =   1.55253587763582E-12  1.12586121101611E-02
 cg2d: Sum(rhs),rhsMax =   1.10311759726756E-12  1.14182668388982E-02
 cg2d: Sum(rhs),rhsMax =   1.23989707390137E-12  1.15461489152381E-02
 cg2d: Sum(rhs),rhsMax =   1.85984561085206E-12  1.16423658674799E-02
 cg2d: Sum(rhs),rhsMax =   1.64668279012403E-12  1.17071460732472E-02
 cg2d: Sum(rhs),rhsMax =   1.38378197789280E-12  1.17408362439438E-02
 cg2d: Sum(rhs),rhsMax =   1.85096382665506E-12  1.17438984369635E-02
 cg2d: Sum(rhs),rhsMax =   1.57918123022682E-12  1.17169066139671E-02
 cg2d: Sum(rhs),rhsMax =   1.51345602716901E-12  1.16605427646470E-02
 cg2d: Sum(rhs),rhsMax =   1.11555209514336E-12  1.15755926164225E-02
 cg2d: Sum(rhs),rhsMax =   2.03392858111329E-12  1.14629409514920E-02
 cg2d: Sum(rhs),rhsMax =   1.54187773659942E-12  1.13235665536199E-02
 cg2d: Sum(rhs),rhsMax =   1.17239551400417E-12  1.14512297612517E-02
 cg2d: Sum(rhs),rhsMax =   1.19193543923757E-12  1.15575216700556E-02
 cg2d: Sum(rhs),rhsMax =   1.72839520473644E-12  1.16364676235932E-02
 cg2d: Sum(rhs),rhsMax =   1.23456800338317E-12  1.16882769485471E-02
(PID.TID 0000.0001)      cg2d_init_res =   5.95110932551868E-01
(PID.TID 0000.0001)      cg2d_iters(min,last) =      -1      32
(PID.TID 0000.0001)      cg2d_last_res =   6.93546933241035E-08
(PID.TID 0000.0001) // =======================================================
(PID.TID 0000.0001) // Begin MONITOR dynamic field statistics
(PID.TID 0000.0001) // =======================================================
(PID.TID 0000.0001) %MON time_tsnumber                =                   680
(PID.TID 0000.0001) %MON time_secondsf                =   4.0800000000000E+04
(PID.TID 0000.0001) %MON dynstat_eta_max              =   8.9271594481184E-03
(PID.TID 0000.0001) %MON dynstat_eta_min              =  -1.0566997934011E-02
(PID.TID 0000.0001) %MON dynstat_eta_mean             =  -4.1718761007709E-19
(PID.TID 0000.0001) %MON dynstat_eta_sd               =   1.3090660697466E-03
(PID.TID 0000.0001) %MON dynstat_eta_del2             =   3.1382835567241E-07
(PID.TID 0000.0001) %MON dynstat_uvel_max             =   4.3996503045489E-02
(PID.TID 0000.0001) %MON dynstat_uvel_min             =  -5.2610383004983E-02
(PID.TID 0000.0001) %MON dynstat_uvel_mean            =   4.4444914407232E-05
(PID.TID 0000.0001) %MON dynstat_uvel_sd              =   1.2756487028853E-03
(PID.TID 0000.0001) %MON dynstat_uvel_del2            =   6.1940862336466E-07
(PID.TID 0000.0001) %MON dynstat_vvel_max             =   2.8676774588206E-02
(PID.TID 0000.0001) %MON dynstat_vvel_min             =  -1.0735646242152E-01
(PID.TID 0000.0001) %MON dynstat_vvel_mean            =   1.3393106446384E-05
(PID.TID 0000.0001) %MON dynstat_vvel_sd              =   4.2076610623751E-03
(PID.TID 0000.0001) %MON dynstat_vvel_del2            =   6.6302725712990E-07
(PID.TID 0000.0001) %MON dynstat_wvel_max             =   1.8287615364793E-04
(PID.TID 0000.0001) %MON dynstat_wvel_min             =  -1.7950268997260E-04
(PID.TID 0000.0001) %MON dynstat_wvel_mean            =   3.7312770522544E-07
(PID.TID 0000.0001) %MON dynstat_wvel_sd              =   2.0318034772520E-06
(PID.TID 0000.0001) %MON dynstat_wvel_del2            =   5.8970062294606E-09
(PID.TID 0000.0001) %MON dynstat_theta_max            =   1.6579846492452E+01
(PID.TID 0000.0001) %MON dynstat_theta_min            =   4.1845216937678E+00
(PID.TID 0000.0001) %MON dynstat_theta_mean           =   8.3857245514973E+00
(PID.TID 0000.0001) %MON dynstat_theta_sd             =   3.8617691997671E+00
(PID.TID 0000.0001) %MON dynstat_theta_del2           =   6.0689027251893E-07
(PID.TID 0000.0001) %MON dynstat_salt_max             =   3.4476107501643E+01
(PID.TID 0000.0001) %MON dynstat_salt_min             =   3.3629642693776E+01
(PID.TID 0000.0001) %MON dynstat_salt_mean            =   3.4127681734989E+01
(PID.TID 0000.0001) %MON dynstat_salt_sd              =   2.8356634948549E-01
(PID.TID 0000.0001) %MON dynstat_salt_del2            =   2.3659996769619E-08
(PID.TID 0000.0001) %MON trAdv_CFL_u_max              =   1.5829155218166E-03
(PID.TID 0000.0001) %MON trAdv_CFL_v_max              =   2.7698767472337E-03
(PID.TID 0000.0001) %MON trAdv_CFL_w_max              =   3.9814410223571E-03
(PID.TID 0000.0001) %MON advcfl_uvel_max              =   1.5849285669164E-03
(PID.TID 0000.0001) %MON advcfl_vvel_max              =   2.7518478031790E-03
(PID.TID 0000.0001) %MON advcfl_wvel_max              =   3.7196099551065E-03
(PID.TID 0000.0001) %MON advcfl_W_hf_max              =   3.9520855773007E-03
(PID.TID 0000.0001) %MON pe_b_mean                    =   1.2835436731701E-08
(PID.TID 0000.0001) %MON ke_max                       =   5.2210049920621E-03
(PID.TID 0000.0001) %MON ke_mean                      =   9.6279421504806E-06
(PID.TID 0000.0001) %MON ke_vol                       =   1.0416098804501E+14
(PID.TID 0000.0001) %MON vort_r_min                   =  -4.5243041922017E-05
(PID.TID 0000.0001) %MON vort_r_max                   =   3.7088793853098E-05
(PID.TID 0000.0001) %MON vort_a_mean                  =   6.9456055905738E-04
(PID.TID 0000.0001) %MON vort_a_sd                    =   7.8449962837127E-07
(PID.TID 0000.0001) %MON vort_p_mean                  =   7.0575608364114E-04
(PID.TID 0000.0001) %MON vort_p_sd                    =   1.5175419826839E-04
(PID.TID 0000.0001) %MON surfExpan_theta_mean         =   2.4457236110504E-12
(PID.TID 0000.0001) %MON surfExpan_salt_mean          =  -1.8755144751273E-21
(PID.TID 0000.0001) // =======================================================
(PID.TID 0000.0001) // End MONITOR dynamic field statistics
(PID.TID 0000.0001) // =======================================================
(PID.TID 0000.0001) // =======================================================
(PID.TID 0000.0001) // Begin OBCS MONITOR field statistics
(PID.TID 0000.0001) // =======================================================
(PID.TID 0000.0001) %MON obc_S_vVel_max               =   4.1065162939543E-04
(PID.TID 0000.0001) %MON obc_S_vVel_min               =  -8.4528432277958E-02
(PID.TID 0000.0001) %MON obc_S_vVel_mean              =  -3.6865626606933E-20
(PID.TID 0000.0001) %MON obc_S_vVel_sd                =   3.7982443762891E-03
(PID.TID 0000.0001) %MON obc_S_vVel_Int               =  -1.7621459846850E-11
(PID.TID 0000.0001) // =======================================================
(PID.TID 0000.0001) // End OBCS MONITOR field statistics
(PID.TID 0000.0001) // =======================================================
 cg2d: Sum(rhs),rhsMax =   1.28252963804698E-12  1.17132576842081E-02
 cg2d: Sum(rhs),rhsMax =   1.06936681731895E-12  1.17118145673838E-02
 cg2d: Sum(rhs),rhsMax =   1.40154554628680E-12  1.16844465600800E-02
 cg2d: Sum(rhs),rhsMax =   1.58628665758442E-12  1.16317439280186E-02
 cg2d: Sum(rhs),rhsMax =   1.23456800338317E-12  1.15543848808952E-02
 cg2d: Sum(rhs),rhsMax =   1.37845290737459E-12  1.14531317882633E-02
 cg2d: Sum(rhs),rhsMax =   1.21502807814977E-12  1.13288269880420E-02
 cg2d: Sum(rhs),rhsMax =   7.70938868299709E-13  1.13003989327773E-02
 cg2d: Sum(rhs),rhsMax =   9.48574552239734E-13  1.13611033524496E-02
 cg2d: Sum(rhs),rhsMax =   1.90070181815827E-12  1.13951908819299E-02
 cg2d: Sum(rhs),rhsMax =   1.36779476633819E-12  1.14029619016733E-02
 cg2d: Sum(rhs),rhsMax =   1.04094510788855E-12  1.13848236139535E-02
 cg2d: Sum(rhs),rhsMax =   1.42108547152020E-12  1.13412858756544E-02
 cg2d: Sum(rhs),rhsMax =   1.19726450975577E-12  1.12729565289999E-02
 cg2d: Sum(rhs),rhsMax =   1.13686837721616E-12  1.11805362682033E-02
 cg2d: Sum(rhs),rhsMax =   1.62003743753303E-12  1.10648130837901E-02
 cg2d: Sum(rhs),rhsMax =   1.24700250125898E-12  1.09266563297459E-02
 cg2d: Sum(rhs),rhsMax =   1.61648472385423E-12  1.07821913511205E-02
 cg2d: Sum(rhs),rhsMax =   1.38200562105339E-12  1.06375145751783E-02
 cg2d: Sum(rhs),rhsMax =   1.13686837721616E-12  1.04727629837727E-02
(PID.TID 0000.0001)      cg2d_init_res =   5.77930338441907E-01
(PID.TID 0000.0001)      cg2d_iters(min,last) =      -1      31
(PID.TID 0000.0001)      cg2d_last_res =   9.08118986938947E-08
(PID.TID 0000.0001) // =======================================================
(PID.TID 0000.0001) // Begin MONITOR dynamic field statistics
(PID.TID 0000.0001) // =======================================================
(PID.TID 0000.0001) %MON time_tsnumber                =                   700
(PID.TID 0000.0001) %MON time_secondsf                =   4.2000000000000E+04
(PID.TID 0000.0001) %MON dynstat_eta_max              =   9.4856947796481E-03
(PID.TID 0000.0001) %MON dynstat_eta_min              =  -9.1220700901812E-03
(PID.TID 0000.0001) %MON dynstat_eta_mean             =  -4.6037018726051E-19
(PID.TID 0000.0001) %MON dynstat_eta_sd               =   1.2345520594478E-03
(PID.TID 0000.0001) %MON dynstat_eta_del2             =   2.9619534809753E-07
(PID.TID 0000.0001) %MON dynstat_uvel_max             =   2.6100085889857E-02
(PID.TID 0000.0001) %MON dynstat_uvel_min             =  -9.7445188460171E-02
(PID.TID 0000.0001) %MON dynstat_uvel_mean            =   3.4795534573679E-05
(PID.TID 0000.0001) %MON dynstat_uvel_sd              =   3.9238215917124E-03
(PID.TID 0000.0001) %MON dynstat_uvel_del2            =   6.1315998571262E-07
(PID.TID 0000.0001) %MON dynstat_vvel_max             =   2.4597901375921E-02
(PID.TID 0000.0001) %MON dynstat_vvel_min             =  -7.3764231126310E-02
(PID.TID 0000.0001) %MON dynstat_vvel_mean            =  -3.5857002289414E-05
(PID.TID 0000.0001) %MON dynstat_vvel_sd              =   1.9429650218066E-03
(PID.TID 0000.0001) %MON dynstat_vvel_del2            =   6.4322734096489E-07
(PID.TID 0000.0001) %MON dynstat_wvel_max             =   1.6478956676252E-04
(PID.TID 0000.0001) %MON dynstat_wvel_min             =  -1.7112844574779E-04
(PID.TID 0000.0001) %MON dynstat_wvel_mean            =   2.2844915247878E-07
(PID.TID 0000.0001) %MON dynstat_wvel_sd              =   1.7928436294813E-06
(PID.TID 0000.0001) %MON dynstat_wvel_del2            =   5.7576076795546E-09
(PID.TID 0000.0001) %MON dynstat_theta_max            =   1.6579825421197E+01
(PID.TID 0000.0001) %MON dynstat_theta_min            =   4.1845171835166E+00
(PID.TID 0000.0001) %MON dynstat_theta_mean           =   8.3857178560863E+00
(PID.TID 0000.0001) %MON dynstat_theta_sd             =   3.8617623329123E+00
(PID.TID 0000.0001) %MON dynstat_theta_del2           =   6.0813733638758E-07
(PID.TID 0000.0001) %MON dynstat_salt_max             =   3.4476107961349E+01
(PID.TID 0000.0001) %MON dynstat_salt_min             =   3.3629664759799E+01
(PID.TID 0000.0001) %MON dynstat_salt_mean            =   3.4127682143571E+01
(PID.TID 0000.0001) %MON dynstat_salt_sd              =   2.8356605030459E-01
(PID.TID 0000.0001) %MON dynstat_salt_del2            =   2.3411075285757E-08
(PID.TID 0000.0001) %MON trAdv_CFL_u_max              =   2.8770150794593E-03
(PID.TID 0000.0001) %MON trAdv_CFL_v_max              =   2.0523498021476E-03
(PID.TID 0000.0001) %MON trAdv_CFL_w_max              =   3.4307537682036E-03
(PID.TID 0000.0001) %MON advcfl_uvel_max              =   2.9356118332088E-03
(PID.TID 0000.0001) %MON advcfl_vvel_max              =   1.8907441334495E-03
(PID.TID 0000.0001) %MON advcfl_wvel_max              =   3.2051529687968E-03
(PID.TID 0000.0001) %MON advcfl_W_hf_max              =   3.4054750293466E-03
(PID.TID 0000.0001) %MON pe_b_mean                    =   1.1415799545426E-08
(PID.TID 0000.0001) %MON ke_max                       =   5.9707498777588E-03
(PID.TID 0000.0001) %MON ke_mean                      =   9.5708657632769E-06
(PID.TID 0000.0001) %MON ke_vol                       =   1.0416098804501E+14
(PID.TID 0000.0001) %MON vort_r_min                   =  -4.5705679461958E-05
(PID.TID 0000.0001) %MON vort_r_max                   =   3.0424624473638E-05
(PID.TID 0000.0001) %MON vort_a_mean                  =   6.9456055905738E-04
(PID.TID 0000.0001) %MON vort_a_sd                    =   7.9556110148225E-07
(PID.TID 0000.0001) %MON vort_p_mean                  =   7.0575608364114E-04
(PID.TID 0000.0001) %MON vort_p_sd                    =   1.5175780747569E-04
(PID.TID 0000.0001) %MON surfExpan_theta_mean         =   1.4155410142883E-12
(PID.TID 0000.0001) %MON surfExpan_salt_mean          =  -1.4180719202182E-21
(PID.TID 0000.0001) // =======================================================
(PID.TID 0000.0001) // End MONITOR dynamic field statistics
(PID.TID 0000.0001) // =======================================================
(PID.TID 0000.0001) // =======================================================
(PID.TID 0000.0001) // Begin OBCS MONITOR field statistics
(PID.TID 0000.0001) // =======================================================
(PID.TID 0000.0001) %MON obc_S_vVel_max               =   2.9434952601981E-04
(PID.TID 0000.0001) %MON obc_S_vVel_min               =  -5.0568684465259E-02
(PID.TID 0000.0001) %MON obc_S_vVel_mean              =  -3.8887290001507E-20
(PID.TID 0000.0001) %MON obc_S_vVel_sd                =   2.2728286091816E-03
(PID.TID 0000.0001) %MON obc_S_vVel_Int               =  -1.8587797967484E-11
(PID.TID 0000.0001) // =======================================================
(PID.TID 0000.0001) // End OBCS MONITOR field statistics
(PID.TID 0000.0001) // =======================================================
 cg2d: Sum(rhs),rhsMax =   1.83675297193986E-12  1.02889282101593E-02
 cg2d: Sum(rhs),rhsMax =   2.30571117754153E-12  1.01141410846061E-02
 cg2d: Sum(rhs),rhsMax =   1.36424205265939E-12  1.00994074022510E-02
 cg2d: Sum(rhs),rhsMax =   1.62003743753303E-12  1.00655843118141E-02
 cg2d: Sum(rhs),rhsMax =   2.09610107049230E-12  1.00129341258805E-02
 cg2d: Sum(rhs),rhsMax =   1.89004367712187E-12  9.94178857841097E-03
 cg2d: Sum(rhs),rhsMax =   1.71240799318184E-12  9.97353355846745E-03
 cg2d: Sum(rhs),rhsMax =   1.42819089887780E-12  9.99642801635395E-03
 cg2d: Sum(rhs),rhsMax =   1.76569869836385E-12  9.99944546574430E-03
 cg2d: Sum(rhs),rhsMax =   2.14228634831670E-12  9.98269527199256E-03
 cg2d: Sum(rhs),rhsMax =   1.52766688188422E-12  9.98120999597671E-03
 cg2d: Sum(rhs),rhsMax =   1.54543045027822E-12  1.00574481464865E-02
 cg2d: Sum(rhs),rhsMax =   1.71240799318184E-12  1.01129405293010E-02
 cg2d: Sum(rhs),rhsMax =   1.48148160405981E-12  1.01475955028056E-02
 cg2d: Sum(rhs),rhsMax =   1.36779476633819E-12  1.01614085729568E-02
 cg2d: Sum(rhs),rhsMax =   1.63247193540883E-12  1.01785302956068E-02
 cg2d: Sum(rhs),rhsMax =   1.62714286489063E-12  1.02821500894620E-02
 cg2d: Sum(rhs),rhsMax =   1.70707892266364E-12  1.03643022626803E-02
 cg2d: Sum(rhs),rhsMax =   1.67865721323324E-12  1.04248236599565E-02
 cg2d: Sum(rhs),rhsMax =   1.30029320644098E-12  1.04636431874081E-02
(PID.TID 0000.0001)      cg2d_init_res =   7.73163643767572E-01
(PID.TID 0000.0001)      cg2d_iters(min,last) =      -1      32
(PID.TID 0000.0001)      cg2d_last_res =   6.58904623473350E-08
(PID.TID 0000.0001) // =======================================================
(PID.TID 0000.0001) // Begin MONITOR dynamic field statistics
(PID.TID 0000.0001) // =======================================================
(PID.TID 0000.0001) %MON time_tsnumber                =                   720
(PID.TID 0000.0001) %MON time_secondsf                =   4.3200000000000E+04
(PID.TID 0000.0001) %MON dynstat_eta_max              =   6.3207714959349E-03
(PID.TID 0000.0001) %MON dynstat_eta_min              =  -9.4725856260328E-03
(PID.TID 0000.0001) %MON dynstat_eta_mean             =  -4.7134880857833E-19
(PID.TID 0000.0001) %MON dynstat_eta_sd               =   9.7982087748473E-04
(PID.TID 0000.0001) %MON dynstat_eta_del2             =   2.6947865994940E-07
(PID.TID 0000.0001) %MON dynstat_uvel_max             =   2.4080532966652E-02
(PID.TID 0000.0001) %MON dynstat_uvel_min             =  -1.0433033588674E-01
(PID.TID 0000.0001) %MON dynstat_uvel_mean            =  -3.5138577939598E-06
(PID.TID 0000.0001) %MON dynstat_uvel_sd              =   4.0344647400447E-03
(PID.TID 0000.0001) %MON dynstat_uvel_del2            =   6.1582026689367E-07
(PID.TID 0000.0001) %MON dynstat_vvel_max             =   4.8888289247018E-02
(PID.TID 0000.0001) %MON dynstat_vvel_min             =  -4.3509605310554E-02
(PID.TID 0000.0001) %MON dynstat_vvel_mean            =  -4.8324328060477E-05
(PID.TID 0000.0001) %MON dynstat_vvel_sd              =   1.6628988951808E-03
(PID.TID 0000.0001) %MON dynstat_vvel_del2            =   6.0841519340606E-07
(PID.TID 0000.0001) %MON dynstat_wvel_max             =   1.2651097667623E-04
(PID.TID 0000.0001) %MON dynstat_wvel_min             =  -1.7345284989177E-04
(PID.TID 0000.0001) %MON dynstat_wvel_mean            =  -6.3748541570032E-08
(PID.TID 0000.0001) %MON dynstat_wvel_sd              =   1.8213283803785E-06
(PID.TID 0000.0001) %MON dynstat_wvel_del2            =   5.5832858215513E-09
(PID.TID 0000.0001) %MON dynstat_theta_max            =   1.6579803402230E+01
(PID.TID 0000.0001) %MON dynstat_theta_min            =   4.1845166141866E+00
(PID.TID 0000.0001) %MON dynstat_theta_mean           =   8.3857161867028E+00
(PID.TID 0000.0001) %MON dynstat_theta_sd             =   3.8617596263671E+00
(PID.TID 0000.0001) %MON dynstat_theta_del2           =   6.1500043074366E-07
(PID.TID 0000.0001) %MON dynstat_salt_max             =   3.4476108019378E+01
(PID.TID 0000.0001) %MON dynstat_salt_min             =   3.3629679045839E+01
(PID.TID 0000.0001) %MON dynstat_salt_mean            =   3.4127682248875E+01
(PID.TID 0000.0001) %MON dynstat_salt_sd              =   2.8356592789078E-01
(PID.TID 0000.0001) %MON dynstat_salt_del2            =   2.3270135872352E-08
(PID.TID 0000.0001) %MON trAdv_CFL_u_max              =   3.1775493186041E-03
(PID.TID 0000.0001) %MON trAdv_CFL_v_max              =   1.5810194134112E-03
(PID.TID 0000.0001) %MON trAdv_CFL_w_max              =   2.9545619609071E-03
(PID.TID 0000.0001) %MON advcfl_uvel_max              =   3.1430322361882E-03
(PID.TID 0000.0001) %MON advcfl_vvel_max              =   1.2531442293372E-03
(PID.TID 0000.0001) %MON advcfl_wvel_max              =   2.7591999926786E-03
(PID.TID 0000.0001) %MON advcfl_W_hf_max              =   2.9316499922210E-03
(PID.TID 0000.0001) %MON pe_b_mean                    =   7.1908610269053E-09
(PID.TID 0000.0001) %MON ke_max                       =   5.9549805879545E-03
(PID.TID 0000.0001) %MON ke_mean                      =   9.5184121888505E-06
(PID.TID 0000.0001) %MON ke_vol                       =   1.0416098804501E+14
(PID.TID 0000.0001) %MON vort_r_min                   =  -4.1016251722894E-05
(PID.TID 0000.0001) %MON vort_r_max                   =   3.5590423081502E-05
(PID.TID 0000.0001) %MON vort_a_mean                  =   6.9456055905738E-04
(PID.TID 0000.0001) %MON vort_a_sd                    =   8.0113660400505E-07
(PID.TID 0000.0001) %MON vort_p_mean                  =   7.0575608364114E-04
(PID.TID 0000.0001) %MON vort_p_sd                    =   1.5175771223588E-04
(PID.TID 0000.0001) %MON surfExpan_theta_mean         =  -2.6538743933728E-12
(PID.TID 0000.0001) %MON surfExpan_salt_mean          =  -2.6302946907273E-21
(PID.TID 0000.0001) // =======================================================
(PID.TID 0000.0001) // End MONITOR dynamic field statistics
(PID.TID 0000.0001) // =======================================================
(PID.TID 0000.0001) // =======================================================
(PID.TID 0000.0001) // Begin OBCS MONITOR field statistics
(PID.TID 0000.0001) // =======================================================
(PID.TID 0000.0001) %MON obc_S_vVel_max               =   1.6355143295300E-02
(PID.TID 0000.0001) %MON obc_S_vVel_min               =  -1.0163771842045E-04
(PID.TID 0000.0001) %MON obc_S_vVel_mean              =  -3.2346614313180E-20
(PID.TID 0000.0001) %MON obc_S_vVel_sd                =   7.3419692433772E-04
(PID.TID 0000.0001) %MON obc_S_vVel_Int               =  -1.5461409930140E-11
(PID.TID 0000.0001) // =======================================================
(PID.TID 0000.0001) // End OBCS MONITOR field statistics
(PID.TID 0000.0001) // =======================================================
(PID.TID 0000.0001) %CHECKPOINT       720 ckptA
 cg2d: Sum(rhs),rhsMax =   1.66799907219684E-12  1.04807816667091E-02
 cg2d: Sum(rhs),rhsMax =   1.65378821748163E-12  1.05015815832542E-02
 cg2d: Sum(rhs),rhsMax =   1.54898316395702E-12  1.06052289588429E-02
 cg2d: Sum(rhs),rhsMax =   1.59694479862083E-12  1.06869399099607E-02
 cg2d: Sum(rhs),rhsMax =   1.59428026336172E-12  1.07466087364000E-02
 cg2d: Sum(rhs),rhsMax =   1.66089364483923E-12  1.07842202100315E-02
 cg2d: Sum(rhs),rhsMax =   1.70530256582424E-12  1.07998485839046E-02
 cg2d: Sum(rhs),rhsMax =   1.40687461680500E-12  1.08692997260545E-02
 cg2d: Sum(rhs),rhsMax =   1.51478829479856E-12  1.09712542663400E-02
 cg2d: Sum(rhs),rhsMax =   1.62803104331033E-12  1.10511429942863E-02
 cg2d: Sum(rhs),rhsMax =   1.63047353396450E-12  1.11088923917050E-02
 cg2d: Sum(rhs),rhsMax =   1.62181379437243E-12  1.11445123861129E-02
 cg2d: Sum(rhs),rhsMax =   1.51445522789118E-12  1.11580950467506E-02
 cg2d: Sum(rhs),rhsMax =   1.48792089760263E-12  1.11498128750561E-02
 cg2d: Sum(rhs),rhsMax =   1.61737290227393E-12  1.11199167098955E-02
 cg2d: Sum(rhs),rhsMax =   1.74349423787135E-12  1.10687332699279E-02
 cg2d: Sum(rhs),rhsMax =   1.42463818519900E-12  1.11811072797143E-02
 cg2d: Sum(rhs),rhsMax =   1.39888101102770E-12  1.13021951132125E-02
 cg2d: Sum(rhs),rhsMax =   1.32960309429109E-12  1.14023994727086E-02
 cg2d: Sum(rhs),rhsMax =   1.45661260830821E-12  1.14814752510123E-02
(PID.TID 0000.0001)      cg2d_init_res =   7.13500955964695E-01
(PID.TID 0000.0001)      cg2d_iters(min,last) =      -1      31
(PID.TID 0000.0001)      cg2d_last_res =   8.55849344117181E-08
(PID.TID 0000.0001) // =======================================================
(PID.TID 0000.0001) // Begin MONITOR dynamic field statistics
(PID.TID 0000.0001) // =======================================================
(PID.TID 0000.0001) %MON time_tsnumber                =                   740
(PID.TID 0000.0001) %MON time_secondsf                =   4.4400000000000E+04
(PID.TID 0000.0001) %MON dynstat_eta_max              =   6.0721703919621E-03
(PID.TID 0000.0001) %MON dynstat_eta_min              =  -1.0406651066505E-02
(PID.TID 0000.0001) %MON dynstat_eta_mean             =  -4.1279616154996E-19
(PID.TID 0000.0001) %MON dynstat_eta_sd               =   1.0493230246417E-03
(PID.TID 0000.0001) %MON dynstat_eta_del2             =   2.4302346298286E-07
(PID.TID 0000.0001) %MON dynstat_uvel_max             =   1.7400026984729E-02
(PID.TID 0000.0001) %MON dynstat_uvel_min             =  -7.0664357535560E-02
(PID.TID 0000.0001) %MON dynstat_uvel_mean            =  -2.6671101674852E-05
(PID.TID 0000.0001) %MON dynstat_uvel_sd              =   1.5444286176019E-03
(PID.TID 0000.0001) %MON dynstat_uvel_del2            =   5.9926836862026E-07
(PID.TID 0000.0001) %MON dynstat_vvel_max             =   1.0067190386380E-01
(PID.TID 0000.0001) %MON dynstat_vvel_min             =  -2.5636898408854E-02
(PID.TID 0000.0001) %MON dynstat_vvel_mean            =  -1.1670688039041E-05
(PID.TID 0000.0001) %MON dynstat_vvel_sd              =   4.0742389259900E-03
(PID.TID 0000.0001) %MON dynstat_vvel_del2            =   5.8419279794936E-07
(PID.TID 0000.0001) %MON dynstat_wvel_max             =   1.3058791498440E-04
(PID.TID 0000.0001) %MON dynstat_wvel_min             =  -1.5359019159183E-04
(PID.TID 0000.0001) %MON dynstat_wvel_mean            =  -3.1203466912650E-07
(PID.TID 0000.0001) %MON dynstat_wvel_sd              =   1.8843558905247E-06
(PID.TID 0000.0001) %MON dynstat_wvel_del2            =   5.3685968854148E-09
(PID.TID 0000.0001) %MON dynstat_theta_max            =   1.6579780947652E+01
(PID.TID 0000.0001) %MON dynstat_theta_min            =   4.1845181255850E+00
(PID.TID 0000.0001) %MON dynstat_theta_mean           =   8.3857205819414E+00
(PID.TID 0000.0001) %MON dynstat_theta_sd             =   3.8617618423830E+00
(PID.TID 0000.0001) %MON dynstat_theta_del2           =   6.2451251096386E-07
(PID.TID 0000.0001) %MON dynstat_salt_max             =   3.4476107865329E+01
(PID.TID 0000.0001) %MON dynstat_salt_min             =   3.3629673723896E+01
(PID.TID 0000.0001) %MON dynstat_salt_mean            =   3.4127681985505E+01
(PID.TID 0000.0001) %MON dynstat_salt_sd              =   2.8356601325732E-01
(PID.TID 0000.0001) %MON dynstat_salt_del2            =   2.3397582900633E-08
(PID.TID 0000.0001) %MON trAdv_CFL_u_max              =   2.1834681775317E-03
(PID.TID 0000.0001) %MON trAdv_CFL_v_max              =   2.5435532967808E-03
(PID.TID 0000.0001) %MON trAdv_CFL_w_max              =   2.6077555825064E-03
(PID.TID 0000.0001) %MON advcfl_uvel_max              =   2.1288185434858E-03
(PID.TID 0000.0001) %MON advcfl_vvel_max              =   2.5805037837564E-03
(PID.TID 0000.0001) %MON advcfl_wvel_max              =   2.4842740761628E-03
(PID.TID 0000.0001) %MON advcfl_W_hf_max              =   2.6084877799709E-03
(PID.TID 0000.0001) %MON pe_b_mean                    =   8.2471885278015E-09
(PID.TID 0000.0001) %MON ke_max                       =   4.9604608484320E-03
(PID.TID 0000.0001) %MON ke_mean                      =   9.4642330484466E-06
(PID.TID 0000.0001) %MON ke_vol                       =   1.0416098804501E+14
(PID.TID 0000.0001) %MON vort_r_min                   =  -3.0173988304659E-05
(PID.TID 0000.0001) %MON vort_r_max                   =   2.7145225484610E-05
(PID.TID 0000.0001) %MON vort_a_mean                  =   6.9456055905738E-04
(PID.TID 0000.0001) %MON vort_a_sd                    =   7.8795033905703E-07
(PID.TID 0000.0001) %MON vort_p_mean                  =   7.0575608364114E-04
(PID.TID 0000.0001) %MON vort_p_sd                    =   1.5175463324315E-04
(PID.TID 0000.0001) %MON surfExpan_theta_mean         =  -4.9974123775973E-12
(PID.TID 0000.0001) %MON surfExpan_salt_mean          =   3.2020978843636E-22
(PID.TID 0000.0001) // =======================================================
(PID.TID 0000.0001) // End MONITOR dynamic field statistics
(PID.TID 0000.0001) // =======================================================
(PID.TID 0000.0001) // =======================================================
(PID.TID 0000.0001) // Begin OBCS MONITOR field statistics
(PID.TID 0000.0001) // =======================================================
(PID.TID 0000.0001) %MON obc_S_vVel_max               =   7.2079658054323E-02
(PID.TID 0000.0001) %MON obc_S_vVel_min               =  -3.3443721463667E-04
(PID.TID 0000.0001) %MON obc_S_vVel_mean              =  -4.9233449726678E-20
(PID.TID 0000.0001) %MON obc_S_vVel_sd                =   3.2395256567321E-03
(PID.TID 0000.0001) %MON obc_S_vVel_Int               =  -2.3533175408375E-11
(PID.TID 0000.0001) // =======================================================
(PID.TID 0000.0001) // End OBCS MONITOR field statistics
(PID.TID 0000.0001) // =======================================================
 cg2d: Sum(rhs),rhsMax =   1.65734093116043E-12  1.15392452743144E-02
 cg2d: Sum(rhs),rhsMax =   1.39799283260800E-12  1.15756002765262E-02
 cg2d: Sum(rhs),rhsMax =   1.15285558877076E-12  1.15904985774114E-02
 cg2d: Sum(rhs),rhsMax =   1.44595446727180E-12  1.15839654763970E-02
 cg2d: Sum(rhs),rhsMax =   1.41220368732320E-12  1.15560923751758E-02
 cg2d: Sum(rhs),rhsMax =   1.36068933898059E-12  1.15070356431228E-02
 cg2d: Sum(rhs),rhsMax =   1.55075952079642E-12  1.15048479853041E-02
 cg2d: Sum(rhs),rhsMax =   1.34292577058659E-12  1.14977660383975E-02
 cg2d: Sum(rhs),rhsMax =   1.49746881561441E-12  1.15138483465415E-02
 cg2d: Sum(rhs),rhsMax =   1.45838896514761E-12  1.15977898196373E-02
 cg2d: Sum(rhs),rhsMax =   1.46727074934461E-12  1.18331008186052E-02
 cg2d: Sum(rhs),rhsMax =   1.56141766183282E-12  1.20494349964963E-02
 cg2d: Sum(rhs),rhsMax =   1.44240175359300E-12  1.22458250956987E-02
 cg2d: Sum(rhs),rhsMax =   1.50990331349021E-12  1.24213466136424E-02
 cg2d: Sum(rhs),rhsMax =   1.33582034322899E-12  1.25751232627855E-02
 cg2d: Sum(rhs),rhsMax =   1.22923893286497E-12  1.27063323959981E-02
 cg2d: Sum(rhs),rhsMax =   1.37845290737459E-12  1.28142103575790E-02
 cg2d: Sum(rhs),rhsMax =   1.32871491587139E-12  1.28980577185109E-02
 cg2d: Sum(rhs),rhsMax =   1.26121335597418E-12  1.29572443533672E-02
 cg2d: Sum(rhs),rhsMax =   1.28963506540458E-12  1.29938833718488E-02
(PID.TID 0000.0001)      cg2d_init_res =   4.87411783400909E-01
(PID.TID 0000.0001)      cg2d_iters(min,last) =      -1      31
(PID.TID 0000.0001)      cg2d_last_res =   9.24265023507703E-08
(PID.TID 0000.0001) // =======================================================
(PID.TID 0000.0001) // Begin MONITOR dynamic field statistics
(PID.TID 0000.0001) // =======================================================
(PID.TID 0000.0001) %MON time_tsnumber                =                   760
(PID.TID 0000.0001) %MON time_secondsf                =   4.5600000000000E+04
(PID.TID 0000.0001) %MON dynstat_eta_max              =   7.5826922068864E-03
(PID.TID 0000.0001) %MON dynstat_eta_min              =  -1.1780029602520E-02
(PID.TID 0000.0001) %MON dynstat_eta_mean             =  -4.7866788945687E-19
(PID.TID 0000.0001) %MON dynstat_eta_sd               =   1.3407503393431E-03
(PID.TID 0000.0001) %MON dynstat_eta_del2             =   2.3335585202908E-07
(PID.TID 0000.0001) %MON dynstat_uvel_max             =   6.0859712580627E-02
(PID.TID 0000.0001) %MON dynstat_uvel_min             =  -3.0063611438665E-02
(PID.TID 0000.0001) %MON dynstat_uvel_mean            =  -1.0301032097541E-05
(PID.TID 0000.0001) %MON dynstat_uvel_sd              =   2.0254110484248E-03
(PID.TID 0000.0001) %MON dynstat_uvel_del2            =   5.6484632670466E-07
(PID.TID 0000.0001) %MON dynstat_vvel_max             =   9.5870297067187E-02
(PID.TID 0000.0001) %MON dynstat_vvel_min             =  -2.3115522241050E-02
(PID.TID 0000.0001) %MON dynstat_vvel_mean            =   2.5278950988303E-05
(PID.TID 0000.0001) %MON dynstat_vvel_sd              =   3.8453109925505E-03
(PID.TID 0000.0001) %MON dynstat_vvel_del2            =   5.7014106726079E-07
(PID.TID 0000.0001) %MON dynstat_wvel_max             =   1.6386133397539E-04
(PID.TID 0000.0001) %MON dynstat_wvel_min             =  -1.2560288507859E-04
(PID.TID 0000.0001) %MON dynstat_wvel_mean            =  -3.5657544238670E-07
(PID.TID 0000.0001) %MON dynstat_wvel_sd              =   1.8269577430800E-06
(PID.TID 0000.0001) %MON dynstat_wvel_del2            =   5.2981009457289E-09
(PID.TID 0000.0001) %MON dynstat_theta_max            =   1.6579758729838E+01
(PID.TID 0000.0001) %MON dynstat_theta_min            =   4.1845197210216E+00
(PID.TID 0000.0001) %MON dynstat_theta_mean           =   8.3857281467093E+00
(PID.TID 0000.0001) %MON dynstat_theta_sd             =   3.8617665504358E+00
(PID.TID 0000.0001) %MON dynstat_theta_del2           =   6.2805993079300E-07
(PID.TID 0000.0001) %MON dynstat_salt_max             =   3.4476107702715E+01
(PID.TID 0000.0001) %MON dynstat_salt_min             =   3.3629649357735E+01
(PID.TID 0000.0001) %MON dynstat_salt_mean            =   3.4127681527168E+01
(PID.TID 0000.0001) %MON dynstat_salt_sd              =   2.8356620281474E-01
(PID.TID 0000.0001) %MON dynstat_salt_del2            =   2.3485230307864E-08
(PID.TID 0000.0001) %MON trAdv_CFL_u_max              =   1.7358890683599E-03
(PID.TID 0000.0001) %MON trAdv_CFL_v_max              =   2.5017943427787E-03
(PID.TID 0000.0001) %MON trAdv_CFL_w_max              =   2.5420288383560E-03
(PID.TID 0000.0001) %MON advcfl_uvel_max              =   1.8334460145295E-03
(PID.TID 0000.0001) %MON advcfl_vvel_max              =   2.4574251090596E-03
(PID.TID 0000.0001) %MON advcfl_wvel_max              =   2.3842587917220E-03
(PID.TID 0000.0001) %MON advcfl_W_hf_max              =   2.5332749662046E-03
(PID.TID 0000.0001) %MON pe_b_mean                    =   1.3464286641246E-08
(PID.TID 0000.0001) %MON ke_max                       =   5.0832195102468E-03
(PID.TID 0000.0001) %MON ke_mean                      =   9.4087318185265E-06
(PID.TID 0000.0001) %MON ke_vol                       =   1.0416098804501E+14
(PID.TID 0000.0001) %MON vort_r_min                   =  -2.1389720055149E-05
(PID.TID 0000.0001) %MON vort_r_max                   =   2.9352063953827E-05
(PID.TID 0000.0001) %MON vort_a_mean                  =   6.9456055905738E-04
(PID.TID 0000.0001) %MON vort_a_sd                    =   7.8363012750315E-07
(PID.TID 0000.0001) %MON vort_p_mean                  =   7.0575608364114E-04
(PID.TID 0000.0001) %MON vort_p_sd                    =   1.5175139521265E-04
(PID.TID 0000.0001) %MON surfExpan_theta_mean         =  -1.9256423386943E-12
(PID.TID 0000.0001) %MON surfExpan_salt_mean          =  -3.6709765031455E-21
(PID.TID 0000.0001) // =======================================================
(PID.TID 0000.0001) // End MONITOR dynamic field statistics
(PID.TID 0000.0001) // =======================================================
(PID.TID 0000.0001) // =======================================================
(PID.TID 0000.0001) // Begin OBCS MONITOR field statistics
(PID.TID 0000.0001) // =======================================================
(PID.TID 0000.0001) %MON obc_S_vVel_max               =   8.0756912310912E-02
(PID.TID 0000.0001) %MON obc_S_vVel_min               =  -4.1819790381895E-04
(PID.TID 0000.0001) %MON obc_S_vVel_mean              =   6.1839115598726E-21
(PID.TID 0000.0001) %MON obc_S_vVel_sd                =   3.6303725397507E-03
(PID.TID 0000.0001) %MON obc_S_vVel_Int               =   2.9558577807620E-12
(PID.TID 0000.0001) // =======================================================
(PID.TID 0000.0001) // End OBCS MONITOR field statistics
(PID.TID 0000.0001) // =======================================================
 cg2d: Sum(rhs),rhsMax =   1.35003119794419E-12  1.30804317358432E-02
 cg2d: Sum(rhs),rhsMax =   1.47792889038101E-12  1.31418337338801E-02
 cg2d: Sum(rhs),rhsMax =   1.37490019369579E-12  1.31775401844954E-02
 cg2d: Sum(rhs),rhsMax =   1.35358391162299E-12  1.31870845649197E-02
 cg2d: Sum(rhs),rhsMax =   1.62714286489063E-12  1.31700869522768E-02
 cg2d: Sum(rhs),rhsMax =   1.45305989462940E-12  1.31262575927980E-02
 cg2d: Sum(rhs),rhsMax =   1.49569245877501E-12  1.31053692917990E-02
 cg2d: Sum(rhs),rhsMax =   1.76925141204265E-12  1.30775995759885E-02
 cg2d: Sum(rhs),rhsMax =   1.84385839929746E-12  1.30236988319965E-02
 cg2d: Sum(rhs),rhsMax =   1.48858703141741E-12  1.29435542783995E-02
 cg2d: Sum(rhs),rhsMax =   1.59161572810262E-12  1.28371452716004E-02
 cg2d: Sum(rhs),rhsMax =   1.46371803566581E-12  1.27045447604219E-02
 cg2d: Sum(rhs),rhsMax =   1.47082346302341E-12  1.26022033233685E-02
 cg2d: Sum(rhs),rhsMax =   1.62359015121183E-12  1.24869594137993E-02
 cg2d: Sum(rhs),rhsMax =   1.50990331349021E-12  1.23475488761665E-02
 cg2d: Sum(rhs),rhsMax =   1.55608859131462E-12  1.21842088653348E-02
 cg2d: Sum(rhs),rhsMax =   1.60582658281783E-12  1.19972588678606E-02
 cg2d: Sum(rhs),rhsMax =   1.37134748001699E-12  1.17871000878192E-02
 cg2d: Sum(rhs),rhsMax =   1.69819713846664E-12  1.15542144469069E-02
 cg2d: Sum(rhs),rhsMax =   1.92201810023107E-12  1.12991632043910E-02
(PID.TID 0000.0001)      cg2d_init_res =   5.58551661489598E-01
(PID.TID 0000.0001)      cg2d_iters(min,last) =      -1      32
(PID.TID 0000.0001)      cg2d_last_res =   6.29646884281714E-08
(PID.TID 0000.0001) // =======================================================
(PID.TID 0000.0001) // Begin MONITOR dynamic field statistics
(PID.TID 0000.0001) // =======================================================
(PID.TID 0000.0001) %MON time_tsnumber                =                   780
(PID.TID 0000.0001) %MON time_secondsf                =   4.6800000000000E+04
(PID.TID 0000.0001) %MON dynstat_eta_max              =   7.7134096362838E-03
(PID.TID 0000.0001) %MON dynstat_eta_min              =  -1.0236514257822E-02
(PID.TID 0000.0001) %MON dynstat_eta_mean             =  -4.8891460268684E-19
(PID.TID 0000.0001) %MON dynstat_eta_sd               =   1.3276203452005E-03
(PID.TID 0000.0001) %MON dynstat_eta_del2             =   2.3275074748564E-07
(PID.TID 0000.0001) %MON dynstat_uvel_max             =   1.0158854701985E-01
(PID.TID 0000.0001) %MON dynstat_uvel_min             =  -3.2551290985764E-02
(PID.TID 0000.0001) %MON dynstat_uvel_mean            =   2.1332294574650E-05
(PID.TID 0000.0001) %MON dynstat_uvel_sd              =   4.1711352544170E-03
(PID.TID 0000.0001) %MON dynstat_uvel_del2            =   5.3960806227796E-07
(PID.TID 0000.0001) %MON dynstat_vvel_max             =   6.2086971298314E-02
(PID.TID 0000.0001) %MON dynstat_vvel_min             =  -1.9091730906620E-02
(PID.TID 0000.0001) %MON dynstat_vvel_mean            =   1.7846405796378E-05
(PID.TID 0000.0001) %MON dynstat_vvel_sd              =   1.1563888469338E-03
(PID.TID 0000.0001) %MON dynstat_vvel_del2            =   5.4354367279871E-07
(PID.TID 0000.0001) %MON dynstat_wvel_max             =   1.9706270069766E-04
(PID.TID 0000.0001) %MON dynstat_wvel_min             =  -1.0836958577722E-04
(PID.TID 0000.0001) %MON dynstat_wvel_mean            =  -1.6874896193349E-07
(PID.TID 0000.0001) %MON dynstat_wvel_sd              =   1.7210839084117E-06
(PID.TID 0000.0001) %MON dynstat_wvel_del2            =   5.3109900898696E-09
(PID.TID 0000.0001) %MON dynstat_theta_max            =   1.6579736737712E+01
(PID.TID 0000.0001) %MON dynstat_theta_min            =   4.1845214645210E+00
(PID.TID 0000.0001) %MON dynstat_theta_mean           =   8.3857339565365E+00
(PID.TID 0000.0001) %MON dynstat_theta_sd             =   3.8617697271129E+00
(PID.TID 0000.0001) %MON dynstat_theta_del2           =   6.2341815090985E-07
(PID.TID 0000.0001) %MON dynstat_salt_max             =   3.4476107525009E+01
(PID.TID 0000.0001) %MON dynstat_salt_min             =   3.3629623073932E+01
(PID.TID 0000.0001) %MON dynstat_salt_mean            =   3.4127681172450E+01
(PID.TID 0000.0001) %MON dynstat_salt_sd              =   2.8356632641090E-01
(PID.TID 0000.0001) %MON dynstat_salt_del2            =   2.3401536269335E-08
(PID.TID 0000.0001) %MON trAdv_CFL_u_max              =   3.0386141167488E-03
(PID.TID 0000.0001) %MON trAdv_CFL_v_max              =   1.6503380262432E-03
(PID.TID 0000.0001) %MON trAdv_CFL_w_max              =   2.1743730520392E-03
(PID.TID 0000.0001) %MON advcfl_uvel_max              =   3.0604337213824E-03
(PID.TID 0000.0001) %MON advcfl_vvel_max              =   1.5914295445569E-03
(PID.TID 0000.0001) %MON advcfl_wvel_max              =   2.0216355611187E-03
(PID.TID 0000.0001) %MON advcfl_W_hf_max              =   2.1479877836886E-03
(PID.TID 0000.0001) %MON pe_b_mean                    =   1.3201865868069E-08
(PID.TID 0000.0001) %MON ke_max                       =   5.4669530545592E-03
(PID.TID 0000.0001) %MON ke_mean                      =   9.3582036502566E-06
(PID.TID 0000.0001) %MON ke_vol                       =   1.0416098804501E+14
(PID.TID 0000.0001) %MON vort_r_min                   =  -3.1926586628137E-05
(PID.TID 0000.0001) %MON vort_r_max                   =   2.9104316454072E-05
(PID.TID 0000.0001) %MON vort_a_mean                  =   6.9456055905738E-04
(PID.TID 0000.0001) %MON vort_a_sd                    =   7.9704374107900E-07
(PID.TID 0000.0001) %MON vort_p_mean                  =   7.0575608364114E-04
(PID.TID 0000.0001) %MON vort_p_sd                    =   1.5174909007145E-04
(PID.TID 0000.0001) %MON surfExpan_theta_mean         =   3.1484238900974E-12
(PID.TID 0000.0001) %MON surfExpan_salt_mean          =  -2.1070947685500E-21
(PID.TID 0000.0001) // =======================================================
(PID.TID 0000.0001) // End MONITOR dynamic field statistics
(PID.TID 0000.0001) // =======================================================
(PID.TID 0000.0001) // =======================================================
(PID.TID 0000.0001) // Begin OBCS MONITOR field statistics
(PID.TID 0000.0001) // =======================================================
(PID.TID 0000.0001) %MON obc_S_vVel_max               =   3.7030107063961E-02
(PID.TID 0000.0001) %MON obc_S_vVel_min               =  -2.4855828303461E-04
(PID.TID 0000.0001) %MON obc_S_vVel_mean              =   3.8054840368447E-21
(PID.TID 0000.0001) %MON obc_S_vVel_sd                =   1.6642314990095E-03
(PID.TID 0000.0001) %MON obc_S_vVel_Int               =   1.8189894035459E-12
(PID.TID 0000.0001) // =======================================================
(PID.TID 0000.0001) // End OBCS MONITOR field statistics
(PID.TID 0000.0001) // =======================================================
 cg2d: Sum(rhs),rhsMax =   1.81543668986706E-12  1.10225852070506E-02
 cg2d: Sum(rhs),rhsMax =   1.78346226675785E-12  1.07251947758587E-02
 cg2d: Sum(rhs),rhsMax =   2.03215222427389E-12  1.05817045946812E-02
 cg2d: Sum(rhs),rhsMax =   1.78346226675785E-12  1.04907996010016E-02
 cg2d: Sum(rhs),rhsMax =   1.97175609173428E-12  1.03873111944262E-02
 cg2d: Sum(rhs),rhsMax =   1.84741111297626E-12  1.02713436553368E-02
 cg2d: Sum(rhs),rhsMax =   2.02504679691629E-12  1.01430181676689E-02
 cg2d: Sum(rhs),rhsMax =   2.13873363463790E-12  1.00024734085688E-02
 cg2d: Sum(rhs),rhsMax =   2.25242047235952E-12  9.84986615467319E-03
 cg2d: Sum(rhs),rhsMax =   2.15294448935310E-12  9.73050344684248E-03
 cg2d: Sum(rhs),rhsMax =   1.62714286489063E-12  9.67708588171242E-03
 cg2d: Sum(rhs),rhsMax =   1.98951966012828E-12  9.61487400191091E-03
 cg2d: Sum(rhs),rhsMax =   2.35900188272353E-12  9.54369916215669E-03
 cg2d: Sum(rhs),rhsMax =   1.99662508748588E-12  9.46339911387025E-03
 cg2d: Sum(rhs),rhsMax =   2.06767936106189E-12  9.37382064204156E-03
 cg2d: Sum(rhs),rhsMax =   2.25952589971712E-12  9.32571994301504E-03
 cg2d: Sum(rhs),rhsMax =   2.06767936106189E-12  9.32548558481734E-03
 cg2d: Sum(rhs),rhsMax =   2.47979414780275E-12  9.31813295849471E-03
 cg2d: Sum(rhs),rhsMax =   2.13162820728030E-12  9.30329797151708E-03
 cg2d: Sum(rhs),rhsMax =   2.23110419028671E-12  9.29019882299571E-03
(PID.TID 0000.0001)      cg2d_init_res =   8.85766230601067E-01
(PID.TID 0000.0001)      cg2d_iters(min,last) =      -1      32
(PID.TID 0000.0001)      cg2d_last_res =   7.88178526241626E-08
(PID.TID 0000.0001) // =======================================================
(PID.TID 0000.0001) // Begin MONITOR dynamic field statistics
(PID.TID 0000.0001) // =======================================================
(PID.TID 0000.0001) %MON time_tsnumber                =                   800
(PID.TID 0000.0001) %MON time_secondsf                =   4.8000000000000E+04
(PID.TID 0000.0001) %MON dynstat_eta_max              =   6.0491954928571E-03
(PID.TID 0000.0001) %MON dynstat_eta_min              =  -8.4164493328527E-03
(PID.TID 0000.0001) %MON dynstat_eta_mean             =  -4.6549354387549E-19
(PID.TID 0000.0001) %MON dynstat_eta_sd               =   1.0103183773004E-03
(PID.TID 0000.0001) %MON dynstat_eta_del2             =   2.3853648424031E-07
(PID.TID 0000.0001) %MON dynstat_uvel_max             =   8.9576279520272E-02
(PID.TID 0000.0001) %MON dynstat_uvel_min             =  -3.3394469224619E-02
(PID.TID 0000.0001) %MON dynstat_uvel_mean            =   2.7697542935107E-05
(PID.TID 0000.0001) %MON dynstat_uvel_sd              =   3.6045518311710E-03
(PID.TID 0000.0001) %MON dynstat_uvel_del2            =   5.2558684814985E-07
(PID.TID 0000.0001) %MON dynstat_vvel_max             =   1.7727097922510E-02
(PID.TID 0000.0001) %MON dynstat_vvel_min             =  -6.7666698022257E-02
(PID.TID 0000.0001) %MON dynstat_vvel_mean            =  -2.0856725230365E-05
(PID.TID 0000.0001) %MON dynstat_vvel_sd              =   2.3750751272143E-03
(PID.TID 0000.0001) %MON dynstat_vvel_del2            =   5.0972748074673E-07
(PID.TID 0000.0001) %MON dynstat_wvel_max             =   2.1295892857315E-04
(PID.TID 0000.0001) %MON dynstat_wvel_min             =  -9.9282135785313E-05
(PID.TID 0000.0001) %MON dynstat_wvel_mean            =   1.2904119469666E-07
(PID.TID 0000.0001) %MON dynstat_wvel_sd              =   1.7328566074653E-06
(PID.TID 0000.0001) %MON dynstat_wvel_del2            =   5.2891316206365E-09
(PID.TID 0000.0001) %MON dynstat_theta_max            =   1.6579714684504E+01
(PID.TID 0000.0001) %MON dynstat_theta_min            =   4.1845235608924E+00
(PID.TID 0000.0001) %MON dynstat_theta_mean           =   8.3857342111857E+00
(PID.TID 0000.0001) %MON dynstat_theta_sd             =   3.8617683133397E+00
(PID.TID 0000.0001) %MON dynstat_theta_del2           =   6.1344672086808E-07
(PID.TID 0000.0001) %MON dynstat_salt_max             =   3.4476107311336E+01
(PID.TID 0000.0001) %MON dynstat_salt_min             =   3.3629597427352E+01
(PID.TID 0000.0001) %MON dynstat_salt_mean            =   3.4127681153076E+01
(PID.TID 0000.0001) %MON dynstat_salt_sd              =   2.8356625549502E-01
(PID.TID 0000.0001) %MON dynstat_salt_del2            =   2.3141361365038E-08
(PID.TID 0000.0001) %MON trAdv_CFL_u_max              =   2.7272040032954E-03
(PID.TID 0000.0001) %MON trAdv_CFL_v_max              =   1.6609060301403E-03
(PID.TID 0000.0001) %MON trAdv_CFL_w_max              =   1.9023576774258E-03
(PID.TID 0000.0001) %MON advcfl_uvel_max              =   2.6985548521158E-03
(PID.TID 0000.0001) %MON advcfl_vvel_max              =   1.7344505644803E-03
(PID.TID 0000.0001) %MON advcfl_wvel_max              =   2.0134069982404E-03
(PID.TID 0000.0001) %MON advcfl_W_hf_max              =   2.1392449356304E-03
(PID.TID 0000.0001) %MON pe_b_mean                    =   7.6454670873557E-09
(PID.TID 0000.0001) %MON ke_max                       =   5.0334758673587E-03
(PID.TID 0000.0001) %MON ke_mean                      =   9.3104062137417E-06
(PID.TID 0000.0001) %MON ke_vol                       =   1.0416098804501E+14
(PID.TID 0000.0001) %MON vort_r_min                   =  -3.3627305487389E-05
(PID.TID 0000.0001) %MON vort_r_max                   =   2.3798240106700E-05
(PID.TID 0000.0001) %MON vort_a_mean                  =   6.9456055905738E-04
(PID.TID 0000.0001) %MON vort_a_sd                    =   7.9859563147069E-07
(PID.TID 0000.0001) %MON vort_p_mean                  =   7.0575608364114E-04
(PID.TID 0000.0001) %MON vort_p_sd                    =   1.5174765426375E-04
(PID.TID 0000.0001) %MON surfExpan_theta_mean         =   4.8588919153615E-12
(PID.TID 0000.0001) %MON surfExpan_salt_mean          =   9.3203920562727E-22
(PID.TID 0000.0001) // =======================================================
(PID.TID 0000.0001) // End MONITOR dynamic field statistics
(PID.TID 0000.0001) // =======================================================
(PID.TID 0000.0001) // =======================================================
(PID.TID 0000.0001) // Begin OBCS MONITOR field statistics
(PID.TID 0000.0001) // =======================================================
(PID.TID 0000.0001) %MON obc_S_vVel_max               =   1.5439025839334E-04
(PID.TID 0000.0001) %MON obc_S_vVel_min               =  -3.0895623692398E-02
(PID.TID 0000.0001) %MON obc_S_vVel_mean              =  -1.5935464404287E-20
(PID.TID 0000.0001) %MON obc_S_vVel_sd                =   1.3888817201017E-03
(PID.TID 0000.0001) %MON obc_S_vVel_Int               =  -7.6170181273483E-12
(PID.TID 0000.0001) // =======================================================
(PID.TID 0000.0001) // End OBCS MONITOR field statistics
(PID.TID 0000.0001) // =======================================================
 cg2d: Sum(rhs),rhsMax =   2.00373051484348E-12  9.31116380046612E-03
 cg2d: Sum(rhs),rhsMax =   2.36610731008113E-12  9.32517761219040E-03
 cg2d: Sum(rhs),rhsMax =   2.01083594220108E-12  9.33187833550538E-03
 cg2d: Sum(rhs),rhsMax =   2.21334062189271E-12  9.33859383410568E-03
 cg2d: Sum(rhs),rhsMax =   2.11031192520750E-12  9.37426430084056E-03
 cg2d: Sum(rhs),rhsMax =   2.18847162614111E-12  9.40299438816896E-03
 cg2d: Sum(rhs),rhsMax =   2.13162820728030E-12  9.43663168426531E-03
 cg2d: Sum(rhs),rhsMax =   2.18136619878351E-12  9.48709164983884E-03
 cg2d: Sum(rhs),rhsMax =   2.12097006624390E-12  9.53067197019123E-03
 cg2d: Sum(rhs),rhsMax =   2.12097006624390E-12  9.56711008069050E-03
 cg2d: Sum(rhs),rhsMax =   2.04991579266789E-12  9.60642415302584E-03
 cg2d: Sum(rhs),rhsMax =   2.12807549360150E-12  9.67594514623029E-03
 cg2d: Sum(rhs),rhsMax =   2.16715534406831E-12  9.76169974904545E-03
 cg2d: Sum(rhs),rhsMax =   1.82254211722466E-12  9.87747724034477E-03
 cg2d: Sum(rhs),rhsMax =   1.94333438230387E-12  1.00324756021916E-02
 cg2d: Sum(rhs),rhsMax =   2.10320649784990E-12  1.01767110251243E-02
 cg2d: Sum(rhs),rhsMax =   2.07833750209829E-12  1.03100259846671E-02
 cg2d: Sum(rhs),rhsMax =   1.89714910447947E-12  1.04323008803290E-02
 cg2d: Sum(rhs),rhsMax =   1.86162196769146E-12  1.05434521185446E-02
 cg2d: Sum(rhs),rhsMax =   1.78701498043665E-12  1.06434299410337E-02
(PID.TID 0000.0001)      cg2d_init_res =   6.69202083044310E-01
(PID.TID 0000.0001)      cg2d_iters(min,last) =      -1      31
(PID.TID 0000.0001)      cg2d_last_res =   9.92861766188807E-08
(PID.TID 0000.0001) // =======================================================
(PID.TID 0000.0001) // Begin MONITOR dynamic field statistics
(PID.TID 0000.0001) // =======================================================
(PID.TID 0000.0001) %MON time_tsnumber                =                   820
(PID.TID 0000.0001) %MON time_secondsf                =   4.9200000000000E+04
(PID.TID 0000.0001) %MON dynstat_eta_max              =   5.6043699356652E-03
(PID.TID 0000.0001) %MON dynstat_eta_min              =  -9.6393102481124E-03
(PID.TID 0000.0001) %MON dynstat_eta_mean             =  -5.6576495191156E-19
(PID.TID 0000.0001) %MON dynstat_eta_sd               =   9.2642579937486E-04
(PID.TID 0000.0001) %MON dynstat_eta_del2             =   2.5398526745901E-07
(PID.TID 0000.0001) %MON dynstat_uvel_max             =   4.8095077061573E-02
(PID.TID 0000.0001) %MON dynstat_uvel_min             =  -2.9681486146630E-02
(PID.TID 0000.0001) %MON dynstat_uvel_mean            =   6.2885656221720E-07
(PID.TID 0000.0001) %MON dynstat_uvel_sd              =   7.6860282524212E-04
(PID.TID 0000.0001) %MON dynstat_uvel_del2            =   5.0233904779651E-07
(PID.TID 0000.0001) %MON dynstat_vvel_max             =   1.5127843203550E-02
(PID.TID 0000.0001) %MON dynstat_vvel_min             =  -9.9733956252358E-02
(PID.TID 0000.0001) %MON dynstat_vvel_mean            =  -4.2181310165524E-05
(PID.TID 0000.0001) %MON dynstat_vvel_sd              =   4.2412679128149E-03
(PID.TID 0000.0001) %MON dynstat_vvel_del2            =   4.9350862035316E-07
(PID.TID 0000.0001) %MON dynstat_wvel_max             =   2.1882147973366E-04
(PID.TID 0000.0001) %MON dynstat_wvel_min             =  -9.6259432332960E-05
(PID.TID 0000.0001) %MON dynstat_wvel_mean            =   3.4296858385840E-07
(PID.TID 0000.0001) %MON dynstat_wvel_sd              =   1.8103376499767E-06
(PID.TID 0000.0001) %MON dynstat_wvel_del2            =   5.2303886859969E-09
(PID.TID 0000.0001) %MON dynstat_theta_max            =   1.6579692680379E+01
(PID.TID 0000.0001) %MON dynstat_theta_min            =   4.1845250427842E+00
(PID.TID 0000.0001) %MON dynstat_theta_mean           =   8.3857287473224E+00
(PID.TID 0000.0001) %MON dynstat_theta_sd             =   3.8617622656853E+00
(PID.TID 0000.0001) %MON dynstat_theta_del2           =   6.0217603723496E-07
(PID.TID 0000.0001) %MON dynstat_salt_max             =   3.4476107160295E+01
(PID.TID 0000.0001) %MON dynstat_salt_min             =   3.3629575158630E+01
(PID.TID 0000.0001) %MON dynstat_salt_mean            =   3.4127681481466E+01
(PID.TID 0000.0001) %MON dynstat_salt_sd              =   2.8356598950058E-01
(PID.TID 0000.0001) %MON dynstat_salt_del2            =   2.2722637977457E-08
(PID.TID 0000.0001) %MON trAdv_CFL_u_max              =   1.5348961189280E-03
(PID.TID 0000.0001) %MON trAdv_CFL_v_max              =   2.5493664936932E-03
(PID.TID 0000.0001) %MON trAdv_CFL_w_max              =   1.8033699278127E-03
(PID.TID 0000.0001) %MON advcfl_uvel_max              =   1.4489014755074E-03
(PID.TID 0000.0001) %MON advcfl_vvel_max              =   2.5564069442675E-03
(PID.TID 0000.0001) %MON advcfl_wvel_max              =   1.8995492913718E-03
(PID.TID 0000.0001) %MON advcfl_W_hf_max              =   2.0182711220825E-03
(PID.TID 0000.0001) %MON pe_b_mean                    =   6.4284874364457E-09
(PID.TID 0000.0001) %MON ke_max                       =   4.3945478161727E-03
(PID.TID 0000.0001) %MON ke_mean                      =   9.2570121863782E-06
(PID.TID 0000.0001) %MON ke_vol                       =   1.0416098804501E+14
(PID.TID 0000.0001) %MON vort_r_min                   =  -2.1137796579898E-05
(PID.TID 0000.0001) %MON vort_r_max                   =   1.4653921404250E-05
(PID.TID 0000.0001) %MON vort_a_mean                  =   6.9456055905738E-04
(PID.TID 0000.0001) %MON vort_a_sd                    =   7.8445588452841E-07
(PID.TID 0000.0001) %MON vort_p_mean                  =   7.0575608364114E-04
(PID.TID 0000.0001) %MON vort_p_sd                    =   1.5174756603064E-04
(PID.TID 0000.0001) %MON surfExpan_theta_mean         =   2.1593982728398E-12
(PID.TID 0000.0001) %MON surfExpan_salt_mean          =   3.0191208624000E-21
(PID.TID 0000.0001) // =======================================================
(PID.TID 0000.0001) // End MONITOR dynamic field statistics
(PID.TID 0000.0001) // =======================================================
(PID.TID 0000.0001) // =======================================================
(PID.TID 0000.0001) // Begin OBCS MONITOR field statistics
(PID.TID 0000.0001) // =======================================================
(PID.TID 0000.0001) %MON obc_S_vVel_max               =   3.8381419881308E-04
(PID.TID 0000.0001) %MON obc_S_vVel_min               =  -7.8315583132700E-02
(PID.TID 0000.0001) %MON obc_S_vVel_mean              =   7.4325860094623E-20
(PID.TID 0000.0001) %MON obc_S_vVel_sd                =   3.5236522971331E-03
(PID.TID 0000.0001) %MON obc_S_vVel_Int               =   3.5527136788005E-11
(PID.TID 0000.0001) // =======================================================
(PID.TID 0000.0001) // End OBCS MONITOR field statistics
(PID.TID 0000.0001) // =======================================================
 cg2d: Sum(rhs),rhsMax =   2.03925765163149E-12  1.07322160243706E-02
 cg2d: Sum(rhs),rhsMax =   1.75504055732745E-12  1.08098208789559E-02
 cg2d: Sum(rhs),rhsMax =   1.95754523701908E-12  1.08762810764421E-02
 cg2d: Sum(rhs),rhsMax =   1.89004367712187E-12  1.09316563374485E-02
 cg2d: Sum(rhs),rhsMax =   1.91491267287347E-12  1.09760265118319E-02
 cg2d: Sum(rhs),rhsMax =   1.92201810023107E-12  1.10094884851282E-02
 cg2d: Sum(rhs),rhsMax =   1.64490643328463E-12  1.10322600716236E-02
 cg2d: Sum(rhs),rhsMax =   1.72839520473644E-12  1.11485878222607E-02
 cg2d: Sum(rhs),rhsMax =   2.10498285468930E-12  1.12524930202250E-02
 cg2d: Sum(rhs),rhsMax =   1.85096382665506E-12  1.13439209754915E-02
 cg2d: Sum(rhs),rhsMax =   1.79767312147305E-12  1.14228420341903E-02
 cg2d: Sum(rhs),rhsMax =   2.01794136955868E-12  1.14892486614297E-02
 cg2d: Sum(rhs),rhsMax =   1.59161572810262E-12  1.15431524974367E-02
 cg2d: Sum(rhs),rhsMax =   1.63780100592703E-12  1.15845814266255E-02
 cg2d: Sum(rhs),rhsMax =   2.01261229904048E-12  1.16135766983831E-02
 cg2d: Sum(rhs),rhsMax =   1.91313631603407E-12  1.16301901370274E-02
 cg2d: Sum(rhs),rhsMax =   1.64135371960583E-12  1.16344814768752E-02
 cg2d: Sum(rhs),rhsMax =   1.71684888528034E-12  1.16265158557891E-02
 cg2d: Sum(rhs),rhsMax =   1.85096382665506E-12  1.16063614984321E-02
 cg2d: Sum(rhs),rhsMax =   1.57029944602982E-12  1.15740876173650E-02
(PID.TID 0000.0001)      cg2d_init_res =   4.20985047080566E-01
(PID.TID 0000.0001)      cg2d_iters(min,last) =      -1      30
(PID.TID 0000.0001)      cg2d_last_res =   8.75183923006105E-08
(PID.TID 0000.0001) // =======================================================
(PID.TID 0000.0001) // Begin MONITOR dynamic field statistics
(PID.TID 0000.0001) // =======================================================
(PID.TID 0000.0001) %MON time_tsnumber                =                   840
(PID.TID 0000.0001) %MON time_secondsf                =   5.0400000000000E+04
(PID.TID 0000.0001) %MON dynstat_eta_max              =   5.3032129754850E-03
(PID.TID 0000.0001) %MON dynstat_eta_min              =  -1.0491518994634E-02
(PID.TID 0000.0001) %MON dynstat_eta_mean             =  -6.2468355298385E-19
(PID.TID 0000.0001) %MON dynstat_eta_sd               =   1.0750684640548E-03
(PID.TID 0000.0001) %MON dynstat_eta_del2             =   2.7109640524271E-07
(PID.TID 0000.0001) %MON dynstat_uvel_max             =   1.1107575911184E-02
(PID.TID 0000.0001) %MON dynstat_uvel_min             =  -7.1526421946305E-02
(PID.TID 0000.0001) %MON dynstat_uvel_mean            =  -2.9591143141219E-05
(PID.TID 0000.0001) %MON dynstat_uvel_sd              =   2.6944667391569E-03
(PID.TID 0000.0001) %MON dynstat_uvel_del2            =   4.7821174050919E-07
(PID.TID 0000.0001) %MON dynstat_vvel_max             =   1.3233048160124E-02
(PID.TID 0000.0001) %MON dynstat_vvel_min             =  -8.7819985859046E-02
(PID.TID 0000.0001) %MON dynstat_vvel_mean            =  -2.1883934417538E-05
(PID.TID 0000.0001) %MON dynstat_vvel_sd              =   3.3469834957468E-03
(PID.TID 0000.0001) %MON dynstat_vvel_del2            =   4.8664705987872E-07
(PID.TID 0000.0001) %MON dynstat_wvel_max             =   2.2221815059220E-04
(PID.TID 0000.0001) %MON dynstat_wvel_min             =  -9.6041272099819E-05
(PID.TID 0000.0001) %MON dynstat_wvel_mean            =   3.3232519903201E-07
(PID.TID 0000.0001) %MON dynstat_wvel_sd              =   1.7304058723669E-06
(PID.TID 0000.0001) %MON dynstat_wvel_del2            =   5.1332720660024E-09
(PID.TID 0000.0001) %MON dynstat_theta_max            =   1.6579670904299E+01
(PID.TID 0000.0001) %MON dynstat_theta_min            =   4.1845248643248E+00
(PID.TID 0000.0001) %MON dynstat_theta_mean           =   8.3857211260267E+00
(PID.TID 0000.0001) %MON dynstat_theta_sd             =   3.8617545599297E+00
(PID.TID 0000.0001) %MON dynstat_theta_del2           =   5.9412864444295E-07
(PID.TID 0000.0001) %MON dynstat_salt_max             =   3.4476107178483E+01
(PID.TID 0000.0001) %MON dynstat_salt_min             =   3.3629556702690E+01
(PID.TID 0000.0001) %MON dynstat_salt_mean            =   3.4127681943647E+01
(PID.TID 0000.0001) %MON dynstat_salt_sd              =   2.8356565472442E-01
(PID.TID 0000.0001) %MON dynstat_salt_del2            =   2.2267863775966E-08
(PID.TID 0000.0001) %MON trAdv_CFL_u_max              =   2.0787907443038E-03
(PID.TID 0000.0001) %MON trAdv_CFL_v_max              =   2.2917120817374E-03
(PID.TID 0000.0001) %MON trAdv_CFL_w_max              =   1.7289622756565E-03
(PID.TID 0000.0001) %MON advcfl_uvel_max              =   2.1547889020552E-03
(PID.TID 0000.0001) %MON advcfl_vvel_max              =   2.2510249280343E-03
(PID.TID 0000.0001) %MON advcfl_wvel_max              =   1.6582422468794E-03
(PID.TID 0000.0001) %MON advcfl_W_hf_max              =   1.7411543592234E-03
(PID.TID 0000.0001) %MON pe_b_mean                    =   8.6568474131782E-09
(PID.TID 0000.0001) %MON ke_max                       =   4.5052683846837E-03
(PID.TID 0000.0001) %MON ke_mean                      =   9.2006882054627E-06
(PID.TID 0000.0001) %MON ke_vol                       =   1.0416098804501E+14
(PID.TID 0000.0001) %MON vort_r_min                   =  -2.0988669605913E-05
(PID.TID 0000.0001) %MON vort_r_max                   =   1.5587384741645E-05
(PID.TID 0000.0001) %MON vort_a_mean                  =   6.9456055905738E-04
(PID.TID 0000.0001) %MON vort_a_sd                    =   7.8467199485704E-07
(PID.TID 0000.0001) %MON vort_p_mean                  =   7.0575608364114E-04
(PID.TID 0000.0001) %MON vort_p_sd                    =   1.5174938626145E-04
(PID.TID 0000.0001) %MON surfExpan_theta_mean         =  -1.8899763930280E-12
(PID.TID 0000.0001) %MON surfExpan_salt_mean          =   2.7446553294545E-22
(PID.TID 0000.0001) // =======================================================
(PID.TID 0000.0001) // End MONITOR dynamic field statistics
(PID.TID 0000.0001) // =======================================================
(PID.TID 0000.0001) // =======================================================
(PID.TID 0000.0001) // Begin OBCS MONITOR field statistics
(PID.TID 0000.0001) // =======================================================
(PID.TID 0000.0001) %MON obc_S_vVel_max               =   4.0838718991990E-04
(PID.TID 0000.0001) %MON obc_S_vVel_min               =  -7.4466043662405E-02
(PID.TID 0000.0001) %MON obc_S_vVel_mean              =   7.4563702846926E-20
(PID.TID 0000.0001) %MON obc_S_vVel_sd                =   3.3507255328979E-03
(PID.TID 0000.0001) %MON obc_S_vVel_Int               =   3.5640823625727E-11
(PID.TID 0000.0001) // =======================================================
(PID.TID 0000.0001) // End OBCS MONITOR field statistics
(PID.TID 0000.0001) // =======================================================
 cg2d: Sum(rhs),rhsMax =   1.76925141204265E-12  1.15480594933719E-02
 cg2d: Sum(rhs),rhsMax =   2.03392858111329E-12  1.15142065732394E-02
 cg2d: Sum(rhs),rhsMax =   1.93844940099552E-12  1.14679467274517E-02
 cg2d: Sum(rhs),rhsMax =   1.62758695410048E-12  1.14252534303050E-02
 cg2d: Sum(rhs),rhsMax =   1.92024174339167E-12  1.13784946375254E-02
 cg2d: Sum(rhs),rhsMax =   2.03104200124926E-12  1.13186464671151E-02
 cg2d: Sum(rhs),rhsMax =   1.93656202185366E-12  1.12457038475532E-02
 cg2d: Sum(rhs),rhsMax =   1.12490572412582E-12  1.11596726174264E-02
 cg2d: Sum(rhs),rhsMax =   1.79678494305335E-12  1.10605696155591E-02
 cg2d: Sum(rhs),rhsMax =   2.35589325825458E-12  1.09946385622447E-02
 cg2d: Sum(rhs),rhsMax =   2.46891396216142E-12  1.09606127101450E-02
 cg2d: Sum(rhs),rhsMax =   1.97575289462293E-12  1.09117281400221E-02
 cg2d: Sum(rhs),rhsMax =   2.01261229904048E-12  1.08500148029539E-02
 cg2d: Sum(rhs),rhsMax =   1.95798932622893E-12  1.07879510462415E-02
 cg2d: Sum(rhs),rhsMax =   1.52589052504482E-12  1.07109353118368E-02
 cg2d: Sum(rhs),rhsMax =   1.92912352758867E-12  1.06531641016180E-02
 cg2d: Sum(rhs),rhsMax =   1.64046554118613E-12  1.06066668064777E-02
 cg2d: Sum(rhs),rhsMax =   1.39621647576860E-12  1.05504175204633E-02
 cg2d: Sum(rhs),rhsMax =   1.50279788613261E-12  1.05137934721928E-02
 cg2d: Sum(rhs),rhsMax =   2.34567920642803E-12  1.04831896689876E-02
(PID.TID 0000.0001)      cg2d_init_res =   5.15684904163662E-01
(PID.TID 0000.0001)      cg2d_iters(min,last) =      -1      31
(PID.TID 0000.0001)      cg2d_last_res =   6.91537465155803E-08
(PID.TID 0000.0001) // =======================================================
(PID.TID 0000.0001) // Begin MONITOR dynamic field statistics
(PID.TID 0000.0001) // =======================================================
(PID.TID 0000.0001) %MON time_tsnumber                =                   860
(PID.TID 0000.0001) %MON time_secondsf                =   5.1600000000000E+04
(PID.TID 0000.0001) %MON dynstat_eta_max              =   6.3740996147469E-03
(PID.TID 0000.0001) %MON dynstat_eta_min              =  -9.4941910642806E-03
(PID.TID 0000.0001) %MON dynstat_eta_mean             =  -6.6896399229905E-19
(PID.TID 0000.0001) %MON dynstat_eta_sd               =   1.0574843599880E-03
(PID.TID 0000.0001) %MON dynstat_eta_del2             =   2.9569424069355E-07
(PID.TID 0000.0001) %MON dynstat_uvel_max             =   1.3046148011731E-02
(PID.TID 0000.0001) %MON dynstat_uvel_min             =  -9.5688695608987E-02
(PID.TID 0000.0001) %MON dynstat_uvel_mean            =  -3.1822141215085E-05
(PID.TID 0000.0001) %MON dynstat_uvel_sd              =   4.2538212028895E-03
(PID.TID 0000.0001) %MON dynstat_uvel_del2            =   4.7328128118652E-07
(PID.TID 0000.0001) %MON dynstat_vvel_max             =   1.5938476487490E-02
(PID.TID 0000.0001) %MON dynstat_vvel_min             =  -3.8663653343121E-02
(PID.TID 0000.0001) %MON dynstat_vvel_mean            =   1.6598264303556E-05
(PID.TID 0000.0001) %MON dynstat_vvel_sd              =   4.5833971451236E-04
(PID.TID 0000.0001) %MON dynstat_vvel_del2            =   4.7108101299505E-07
(PID.TID 0000.0001) %MON dynstat_wvel_max             =   1.9778744370951E-04
(PID.TID 0000.0001) %MON dynstat_wvel_min             =  -1.0578319730201E-04
(PID.TID 0000.0001) %MON dynstat_wvel_mean            =   1.0434346474426E-07
(PID.TID 0000.0001) %MON dynstat_wvel_sd              =   1.6095023541174E-06
(PID.TID 0000.0001) %MON dynstat_wvel_del2            =   5.0499298156710E-09
(PID.TID 0000.0001) %MON dynstat_theta_max            =   1.6579648796299E+01
(PID.TID 0000.0001) %MON dynstat_theta_min            =   4.1845242114509E+00
(PID.TID 0000.0001) %MON dynstat_theta_mean           =   8.3857163478383E+00
(PID.TID 0000.0001) %MON dynstat_theta_sd             =   3.8617492782313E+00
(PID.TID 0000.0001) %MON dynstat_theta_del2           =   5.9078594063917E-07
(PID.TID 0000.0001) %MON dynstat_salt_max             =   3.4476107245027E+01
(PID.TID 0000.0001) %MON dynstat_salt_min             =   3.3629538051867E+01
(PID.TID 0000.0001) %MON dynstat_salt_mean            =   3.4127682236340E+01
(PID.TID 0000.0001) %MON dynstat_salt_sd              =   2.8356542361477E-01
(PID.TID 0000.0001) %MON dynstat_salt_del2            =   2.1805180606619E-08
(PID.TID 0000.0001) %MON trAdv_CFL_u_max              =   2.8792196130139E-03
(PID.TID 0000.0001) %MON trAdv_CFL_v_max              =   1.0710056732426E-03
(PID.TID 0000.0001) %MON trAdv_CFL_w_max              =   2.0547371280623E-03
(PID.TID 0000.0001) %MON advcfl_uvel_max              =   2.8826961245898E-03
(PID.TID 0000.0001) %MON advcfl_vvel_max              =   9.9103691070885E-04
(PID.TID 0000.0001) %MON advcfl_wvel_max              =   1.9760081473544E-03
(PID.TID 0000.0001) %MON advcfl_W_hf_max              =   2.0748085547222E-03
(PID.TID 0000.0001) %MON pe_b_mean                    =   8.3759759862821E-09
(PID.TID 0000.0001) %MON ke_max                       =   4.8765548140545E-03
(PID.TID 0000.0001) %MON ke_mean                      =   9.1479254775252E-06
(PID.TID 0000.0001) %MON ke_vol                       =   1.0416098804501E+14
(PID.TID 0000.0001) %MON vort_r_min                   =  -2.2539458862155E-05
(PID.TID 0000.0001) %MON vort_r_max                   =   3.4152279599506E-05
(PID.TID 0000.0001) %MON vort_a_mean                  =   6.9456055905738E-04
(PID.TID 0000.0001) %MON vort_a_sd                    =   7.9762288394120E-07
(PID.TID 0000.0001) %MON vort_p_mean                  =   7.0575608364114E-04
(PID.TID 0000.0001) %MON vort_p_sd                    =   1.5175204163286E-04
(PID.TID 0000.0001) %MON surfExpan_theta_mean         =  -1.6073978838417E-12
(PID.TID 0000.0001) %MON surfExpan_salt_mean          =  -1.4981243673273E-21
(PID.TID 0000.0001) // =======================================================
(PID.TID 0000.0001) // End MONITOR dynamic field statistics
(PID.TID 0000.0001) // =======================================================
(PID.TID 0000.0001) // =======================================================
(PID.TID 0000.0001) // Begin OBCS MONITOR field statistics
(PID.TID 0000.0001) // =======================================================
(PID.TID 0000.0001) %MON obc_S_vVel_max               =   1.8105321894801E-04
(PID.TID 0000.0001) %MON obc_S_vVel_min               =  -2.1896113749161E-02
(PID.TID 0000.0001) %MON obc_S_vVel_mean              =  -2.1940993899933E-20
(PID.TID 0000.0001) %MON obc_S_vVel_sd                =   9.8472483281459E-04
(PID.TID 0000.0001) %MON obc_S_vVel_Int               =  -1.0487610779819E-11
(PID.TID 0000.0001) // =======================================================
(PID.TID 0000.0001) // End OBCS MONITOR field statistics
(PID.TID 0000.0001) // =======================================================
 cg2d: Sum(rhs),rhsMax =   1.90780724551587E-12  1.04396072580923E-02
 cg2d: Sum(rhs),rhsMax =   1.63602464908763E-12  1.03829919659410E-02
 cg2d: Sum(rhs),rhsMax =   2.04458672214969E-12  1.03133218877604E-02
 cg2d: Sum(rhs),rhsMax =   1.80477854883065E-12  1.02306079564466E-02
 cg2d: Sum(rhs),rhsMax =   2.27551311127172E-12  1.01492514183370E-02
 cg2d: Sum(rhs),rhsMax =   1.93622895494627E-12  1.01026570561823E-02
 cg2d: Sum(rhs),rhsMax =   2.23110419028671E-12  1.00446763750290E-02
 cg2d: Sum(rhs),rhsMax =   2.23820961764432E-12  9.97526232872987E-03
 cg2d: Sum(rhs),rhsMax =   2.01794136955868E-12  9.89439137262938E-03
 cg2d: Sum(rhs),rhsMax =   1.85274018349446E-12  9.80206408313850E-03
 cg2d: Sum(rhs),rhsMax =   1.96820337805548E-12  9.69830575742377E-03
 cg2d: Sum(rhs),rhsMax =   2.04103400847089E-12  9.58316698784045E-03
 cg2d: Sum(rhs),rhsMax =   1.89714910447947E-12  9.45672420498011E-03
 cg2d: Sum(rhs),rhsMax =   2.31104024805973E-12  9.31908018250291E-03
 cg2d: Sum(rhs),rhsMax =   2.45137243837235E-12  9.17036449630088E-03
 cg2d: Sum(rhs),rhsMax =   2.54019028034236E-12  9.01073393000099E-03
 cg2d: Sum(rhs),rhsMax =   2.40163444686914E-12  8.84037281837903E-03
 cg2d: Sum(rhs),rhsMax =   2.61124455391837E-12  8.65949331992653E-03
 cg2d: Sum(rhs),rhsMax =   2.15649720303190E-12  8.46833560960210E-03
 cg2d: Sum(rhs),rhsMax =   2.36610731008113E-12  8.26716798271247E-03
(PID.TID 0000.0001)      cg2d_init_res =   7.53622763281164E-01
(PID.TID 0000.0001)      cg2d_iters(min,last) =      -1      31
(PID.TID 0000.0001)      cg2d_last_res =   9.57451520486454E-08
(PID.TID 0000.0001) // =======================================================
(PID.TID 0000.0001) // Begin MONITOR dynamic field statistics
(PID.TID 0000.0001) // =======================================================
(PID.TID 0000.0001) %MON time_tsnumber                =                   880
(PID.TID 0000.0001) %MON time_secondsf                =   5.2800000000000E+04
(PID.TID 0000.0001) %MON dynstat_eta_max              =   5.9108083906071E-03
(PID.TID 0000.0001) %MON dynstat_eta_min              =  -7.4901686634631E-03
(PID.TID 0000.0001) %MON dynstat_eta_mean             =  -5.8040311366865E-19
(PID.TID 0000.0001) %MON dynstat_eta_sd               =   9.0105415744712E-04
(PID.TID 0000.0001) %MON dynstat_eta_del2             =   2.9721629755977E-07
(PID.TID 0000.0001) %MON dynstat_uvel_max             =   1.2168993552324E-02
(PID.TID 0000.0001) %MON dynstat_uvel_min             =  -8.2950909977384E-02
(PID.TID 0000.0001) %MON dynstat_uvel_mean            =  -7.2937195137412E-06
(PID.TID 0000.0001) %MON dynstat_uvel_sd              =   3.0456450705611E-03
(PID.TID 0000.0001) %MON dynstat_uvel_del2            =   4.7478858504313E-07
(PID.TID 0000.0001) %MON dynstat_vvel_max             =   7.4153157237832E-02
(PID.TID 0000.0001) %MON dynstat_vvel_min             =  -2.4765406082517E-02
(PID.TID 0000.0001) %MON dynstat_vvel_mean            =   3.4394455477498E-05
(PID.TID 0000.0001) %MON dynstat_vvel_sd              =   2.9910917659795E-03
(PID.TID 0000.0001) %MON dynstat_vvel_del2            =   4.5973780477735E-07
(PID.TID 0000.0001) %MON dynstat_wvel_max             =   1.8067905186758E-04
(PID.TID 0000.0001) %MON dynstat_wvel_min             =  -1.4180691670470E-04
(PID.TID 0000.0001) %MON dynstat_wvel_mean            =  -1.8917704306201E-07
(PID.TID 0000.0001) %MON dynstat_wvel_sd              =   1.7004490052028E-06
(PID.TID 0000.0001) %MON dynstat_wvel_del2            =   4.9969676991193E-09
(PID.TID 0000.0001) %MON dynstat_theta_max            =   1.6579625457964E+01
(PID.TID 0000.0001) %MON dynstat_theta_min            =   4.1845259112042E+00
(PID.TID 0000.0001) %MON dynstat_theta_mean           =   8.3857175098579E+00
(PID.TID 0000.0001) %MON dynstat_theta_sd             =   3.8617488953793E+00
(PID.TID 0000.0001) %MON dynstat_theta_del2           =   5.9143207148972E-07
(PID.TID 0000.0001) %MON dynstat_salt_max             =   3.4476107071779E+01
(PID.TID 0000.0001) %MON dynstat_salt_min             =   3.3629513410653E+01
(PID.TID 0000.0001) %MON dynstat_salt_mean            =   3.4127682170271E+01
(PID.TID 0000.0001) %MON dynstat_salt_sd              =   2.8356539951974E-01
(PID.TID 0000.0001) %MON dynstat_salt_del2            =   2.1401521623435E-08
(PID.TID 0000.0001) %MON trAdv_CFL_u_max              =   2.5574200871804E-03
(PID.TID 0000.0001) %MON trAdv_CFL_v_max              =   1.8468325334693E-03
(PID.TID 0000.0001) %MON trAdv_CFL_w_max              =   2.4686127683175E-03
(PID.TID 0000.0001) %MON advcfl_uvel_max              =   2.4989604592388E-03
(PID.TID 0000.0001) %MON advcfl_vvel_max              =   1.9007131896232E-03
(PID.TID 0000.0001) %MON advcfl_wvel_max              =   2.3692440928433E-03
(PID.TID 0000.0001) %MON advcfl_W_hf_max              =   2.4877062974855E-03
(PID.TID 0000.0001) %MON pe_b_mean                    =   6.0812002869221E-09
(PID.TID 0000.0001) %MON ke_max                       =   4.5412160644662E-03
(PID.TID 0000.0001) %MON ke_mean                      =   9.0997106443292E-06
(PID.TID 0000.0001) %MON ke_vol                       =   1.0416098804501E+14
(PID.TID 0000.0001) %MON vort_r_min                   =  -2.4975311019397E-05
(PID.TID 0000.0001) %MON vort_r_max                   =   3.0382402744973E-05
(PID.TID 0000.0001) %MON vort_a_mean                  =   6.9456055905738E-04
(PID.TID 0000.0001) %MON vort_a_sd                    =   7.9441764765982E-07
(PID.TID 0000.0001) %MON vort_p_mean                  =   7.0575608364114E-04
(PID.TID 0000.0001) %MON vort_p_sd                    =   1.5175295647366E-04
(PID.TID 0000.0001) %MON surfExpan_theta_mean         =   3.7916925676122E-12
(PID.TID 0000.0001) %MON surfExpan_salt_mean          =   1.8183341557636E-21
(PID.TID 0000.0001) // =======================================================
(PID.TID 0000.0001) // End MONITOR dynamic field statistics
(PID.TID 0000.0001) // =======================================================
(PID.TID 0000.0001) // =======================================================
(PID.TID 0000.0001) // Begin OBCS MONITOR field statistics
(PID.TID 0000.0001) // =======================================================
(PID.TID 0000.0001) %MON obc_S_vVel_max               =   4.4639666943532E-02
(PID.TID 0000.0001) %MON obc_S_vVel_min               =  -2.1488433929875E-04
(PID.TID 0000.0001) %MON obc_S_vVel_mean              =   4.1087335460308E-20
(PID.TID 0000.0001) %MON obc_S_vVel_sd                =   2.0092256783591E-03
(PID.TID 0000.0001) %MON obc_S_vVel_Int               =   1.9639401216409E-11
(PID.TID 0000.0001) // =======================================================
(PID.TID 0000.0001) // End OBCS MONITOR field statistics
(PID.TID 0000.0001) // =======================================================
 cg2d: Sum(rhs),rhsMax =   2.93098878501041E-12  8.05628686091385E-03
 cg2d: Sum(rhs),rhsMax =   2.80309109257360E-12  7.83601669103209E-03
 cg2d: Sum(rhs),rhsMax =   2.71072053692478E-12  7.61761238017110E-03
 cg2d: Sum(rhs),rhsMax =   2.57571741713036E-12  7.50822730476786E-03
 cg2d: Sum(rhs),rhsMax =   2.78532752417959E-12  7.39168461862947E-03
 cg2d: Sum(rhs),rhsMax =   3.01270119962282E-12  7.26804180790974E-03
 cg2d: Sum(rhs),rhsMax =   2.86703993879200E-12  7.16213438620611E-03
 cg2d: Sum(rhs),rhsMax =   2.89546164822241E-12  7.29068816628428E-03
 cg2d: Sum(rhs),rhsMax =   3.20454773827805E-12  7.40595707865263E-03
 cg2d: Sum(rhs),rhsMax =   3.01625391330163E-12  7.50784555756542E-03
 cg2d: Sum(rhs),rhsMax =   2.85993451143440E-12  7.60526052451463E-03
 cg2d: Sum(rhs),rhsMax =   2.76045852842799E-12  7.78141911827655E-03
 cg2d: Sum(rhs),rhsMax =   2.81374923361000E-12  7.94214244363191E-03
 cg2d: Sum(rhs),rhsMax =   2.67874611381558E-12  8.08710557578426E-03
 cg2d: Sum(rhs),rhsMax =   2.66453525910038E-12  8.21602416201208E-03
 cg2d: Sum(rhs),rhsMax =   2.61479726759717E-12  8.32865566870503E-03
 cg2d: Sum(rhs),rhsMax =   2.52953213930596E-12  8.42805575612178E-03
 cg2d: Sum(rhs),rhsMax =   2.42295072894194E-12  8.59813815501786E-03
 cg2d: Sum(rhs),rhsMax =   2.72137867796118E-12  8.74973659209621E-03
 cg2d: Sum(rhs),rhsMax =   2.61834998127597E-12  8.88245460538289E-03
(PID.TID 0000.0001)      cg2d_init_res =   8.68875097893686E-01
(PID.TID 0000.0001)      cg2d_iters(min,last) =      -1      32
(PID.TID 0000.0001)      cg2d_last_res =   8.46395197521395E-08
(PID.TID 0000.0001) // =======================================================
(PID.TID 0000.0001) // Begin MONITOR dynamic field statistics
(PID.TID 0000.0001) // =======================================================
(PID.TID 0000.0001) %MON time_tsnumber                =                   900
(PID.TID 0000.0001) %MON time_secondsf                =   5.4000000000000E+04
(PID.TID 0000.0001) %MON dynstat_eta_max              =   8.0311781037882E-03
(PID.TID 0000.0001) %MON dynstat_eta_min              =  -5.3733986509238E-03
(PID.TID 0000.0001) %MON dynstat_eta_mean             =  -5.6576495191156E-19
(PID.TID 0000.0001) %MON dynstat_eta_sd               =   8.4398969435109E-04
(PID.TID 0000.0001) %MON dynstat_eta_del2             =   2.6866193226317E-07
(PID.TID 0000.0001) %MON dynstat_uvel_max             =   2.3866273337668E-02
(PID.TID 0000.0001) %MON dynstat_uvel_min             =  -3.2737463933096E-02
(PID.TID 0000.0001) %MON dynstat_uvel_mean            =   1.6186796305916E-05
(PID.TID 0000.0001) %MON dynstat_uvel_sd              =   4.2310699459819E-04
(PID.TID 0000.0001) %MON dynstat_uvel_del2            =   4.6395294850927E-07
(PID.TID 0000.0001) %MON dynstat_vvel_max             =   9.5628245477555E-02
(PID.TID 0000.0001) %MON dynstat_vvel_min             =  -2.8419982635985E-02
(PID.TID 0000.0001) %MON dynstat_vvel_mean            =   1.9271307882787E-05
(PID.TID 0000.0001) %MON dynstat_vvel_sd              =   4.2425700105228E-03
(PID.TID 0000.0001) %MON dynstat_vvel_del2            =   4.6492225872764E-07
(PID.TID 0000.0001) %MON dynstat_wvel_max             =   1.5810752275121E-04
(PID.TID 0000.0001) %MON dynstat_wvel_min             =  -1.7254117584279E-04
(PID.TID 0000.0001) %MON dynstat_wvel_mean            =  -3.5907745027154E-07
(PID.TID 0000.0001) %MON dynstat_wvel_sd              =   1.8202923422813E-06
(PID.TID 0000.0001) %MON dynstat_wvel_del2            =   4.9239199302490E-09
(PID.TID 0000.0001) %MON dynstat_theta_max            =   1.6579601026420E+01
(PID.TID 0000.0001) %MON dynstat_theta_min            =   4.1845314516915E+00
(PID.TID 0000.0001) %MON dynstat_theta_mean           =   8.3857238138318E+00
(PID.TID 0000.0001) %MON dynstat_theta_sd             =   3.8617526600427E+00
(PID.TID 0000.0001) %MON dynstat_theta_del2           =   5.9450410518553E-07
(PID.TID 0000.0001) %MON dynstat_salt_max             =   3.4476106507067E+01
(PID.TID 0000.0001) %MON dynstat_salt_min             =   3.3629481298090E+01
(PID.TID 0000.0001) %MON dynstat_salt_mean            =   3.4127681791003E+01
(PID.TID 0000.0001) %MON dynstat_salt_sd              =   2.8356554956303E-01
(PID.TID 0000.0001) %MON dynstat_salt_del2            =   2.1195959610715E-08
(PID.TID 0000.0001) %MON trAdv_CFL_u_max              =   1.0299946451764E-03
(PID.TID 0000.0001) %MON trAdv_CFL_v_max              =   2.4462911762358E-03
(PID.TID 0000.0001) %MON trAdv_CFL_w_max              =   2.7302922959064E-03
(PID.TID 0000.0001) %MON advcfl_uvel_max              =   9.8624147615583E-04
(PID.TID 0000.0001) %MON advcfl_vvel_max              =   2.4512206466531E-03
(PID.TID 0000.0001) %MON advcfl_wvel_max              =   2.6042242629980E-03
(PID.TID 0000.0001) %MON advcfl_W_hf_max              =   2.7344354761479E-03
(PID.TID 0000.0001) %MON pe_b_mean                    =   5.3353363690898E-09
(PID.TID 0000.0001) %MON ke_max                       =   4.3190240447629E-03
(PID.TID 0000.0001) %MON ke_mean                      =   9.0532643455896E-06
(PID.TID 0000.0001) %MON ke_vol                       =   1.0416098804501E+14
(PID.TID 0000.0001) %MON vort_r_min                   =  -2.2416299886964E-05
(PID.TID 0000.0001) %MON vort_r_max                   =   1.5069557394496E-05
(PID.TID 0000.0001) %MON vort_a_mean                  =   6.9456055905738E-04
(PID.TID 0000.0001) %MON vort_a_sd                    =   7.8210809691636E-07
(PID.TID 0000.0001) %MON vort_p_mean                  =   7.0575608364114E-04
(PID.TID 0000.0001) %MON vort_p_sd                    =   1.5175136815209E-04
(PID.TID 0000.0001) %MON surfExpan_theta_mean         =   6.1222109203417E-12
(PID.TID 0000.0001) %MON surfExpan_salt_mean          =  -6.5328514872955E-21
(PID.TID 0000.0001) // =======================================================
(PID.TID 0000.0001) // End MONITOR dynamic field statistics
(PID.TID 0000.0001) // =======================================================
(PID.TID 0000.0001) // =======================================================
(PID.TID 0000.0001) // Begin OBCS MONITOR field statistics
(PID.TID 0000.0001) // =======================================================
(PID.TID 0000.0001) %MON obc_S_vVel_max               =   8.1575803009784E-02
(PID.TID 0000.0001) %MON obc_S_vVel_min               =  -4.2524976372387E-04
(PID.TID 0000.0001) %MON obc_S_vVel_mean              =  -8.4686884991813E-20
(PID.TID 0000.0001) %MON obc_S_vVel_sd                =   3.6733353225855E-03
(PID.TID 0000.0001) %MON obc_S_vVel_Int               =  -4.0479619656253E-11
(PID.TID 0000.0001) // =======================================================
(PID.TID 0000.0001) // End OBCS MONITOR field statistics
(PID.TID 0000.0001) // =======================================================
 cg2d: Sum(rhs),rhsMax =   2.61124455391837E-12  8.99595091299501E-03
 cg2d: Sum(rhs),rhsMax =   2.53663756666356E-12  9.17008839735757E-03
 cg2d: Sum(rhs),rhsMax =   2.44426701101474E-12  9.34420172990167E-03
 cg2d: Sum(rhs),rhsMax =   2.34834374168713E-12  9.49672287074727E-03
 cg2d: Sum(rhs),rhsMax =   2.30926389122033E-12  9.62719029104243E-03
 cg2d: Sum(rhs),rhsMax =   2.19202433981991E-12  9.73521505286289E-03
 cg2d: Sum(rhs),rhsMax =   2.03925765163149E-12  9.82048327637038E-03
 cg2d: Sum(rhs),rhsMax =   2.25597318603832E-12  9.88275824901585E-03
 cg2d: Sum(rhs),rhsMax =   2.20445883769571E-12  9.92188216423676E-03
 cg2d: Sum(rhs),rhsMax =   1.87405646556726E-12  9.93777747943003E-03
 cg2d: Sum(rhs),rhsMax =   2.27906582495052E-12  9.93044788533663E-03
 cg2d: Sum(rhs),rhsMax =   1.82431847406406E-12  9.89997888132979E-03
 cg2d: Sum(rhs),rhsMax =   2.34301467116893E-12  9.84653795343825E-03
 cg2d: Sum(rhs),rhsMax =   2.10675921152870E-12  9.77037435424360E-03
 cg2d: Sum(rhs),rhsMax =   2.05879757686489E-12  9.67181848605125E-03
 cg2d: Sum(rhs),rhsMax =   2.12629913676210E-12  9.55128089093722E-03
 cg2d: Sum(rhs),rhsMax =   2.26130225655652E-12  9.40925085340827E-03
 cg2d: Sum(rhs),rhsMax =   2.25597318603832E-12  9.25813185720187E-03
 cg2d: Sum(rhs),rhsMax =   2.36255459640233E-12  9.20329252098325E-03
 cg2d: Sum(rhs),rhsMax =   2.35900188272353E-12  9.12838859312205E-03
(PID.TID 0000.0001)      cg2d_init_res =   6.85992236187901E-01
(PID.TID 0000.0001)      cg2d_iters(min,last) =      -1      32
(PID.TID 0000.0001)      cg2d_last_res =   7.69988151752180E-08
(PID.TID 0000.0001) // =======================================================
(PID.TID 0000.0001) // Begin MONITOR dynamic field statistics
(PID.TID 0000.0001) // =======================================================
(PID.TID 0000.0001) %MON time_tsnumber                =                   920
(PID.TID 0000.0001) %MON time_secondsf                =   5.5200000000000E+04
(PID.TID 0000.0001) %MON dynstat_eta_max              =   8.2675355659021E-03
(PID.TID 0000.0001) %MON dynstat_eta_min              =  -7.8473962526153E-03
(PID.TID 0000.0001) %MON dynstat_eta_mean             =  -5.2624191516742E-19
(PID.TID 0000.0001) %MON dynstat_eta_sd               =   1.1005652497616E-03
(PID.TID 0000.0001) %MON dynstat_eta_del2             =   2.3040569569415E-07
(PID.TID 0000.0001) %MON dynstat_uvel_max             =   7.6368411240114E-02
(PID.TID 0000.0001) %MON dynstat_uvel_min             =  -2.9352001532246E-02
(PID.TID 0000.0001) %MON dynstat_uvel_mean            =   1.6047493574130E-05
(PID.TID 0000.0001) %MON dynstat_uvel_sd              =   3.2502272309161E-03
(PID.TID 0000.0001) %MON dynstat_uvel_del2            =   4.5131611087043E-07
(PID.TID 0000.0001) %MON dynstat_vvel_max             =   7.3054662733050E-02
(PID.TID 0000.0001) %MON dynstat_vvel_min             =  -2.5134106200882E-02
(PID.TID 0000.0001) %MON dynstat_vvel_mean            =  -7.2056220917619E-06
(PID.TID 0000.0001) %MON dynstat_vvel_sd              =   2.7373564932967E-03
(PID.TID 0000.0001) %MON dynstat_vvel_del2            =   4.6177777338815E-07
(PID.TID 0000.0001) %MON dynstat_wvel_max             =   1.2337647791153E-04
(PID.TID 0000.0001) %MON dynstat_wvel_min             =  -1.9495031300604E-04
(PID.TID 0000.0001) %MON dynstat_wvel_mean            =  -2.9508017271816E-07
(PID.TID 0000.0001) %MON dynstat_wvel_sd              =   1.7095091725537E-06
(PID.TID 0000.0001) %MON dynstat_wvel_del2            =   4.8637333610413E-09
(PID.TID 0000.0001) %MON dynstat_theta_max            =   1.6579576881470E+01
(PID.TID 0000.0001) %MON dynstat_theta_min            =   4.1845393552854E+00
(PID.TID 0000.0001) %MON dynstat_theta_mean           =   8.3857311599720E+00
(PID.TID 0000.0001) %MON dynstat_theta_sd             =   3.8617571650984E+00
(PID.TID 0000.0001) %MON dynstat_theta_del2           =   5.9671225351404E-07
(PID.TID 0000.0001) %MON dynstat_salt_max             =   3.4476105701495E+01
(PID.TID 0000.0001) %MON dynstat_salt_min             =   3.3629448558773E+01
(PID.TID 0000.0001) %MON dynstat_salt_mean            =   3.4127681345387E+01
(PID.TID 0000.0001) %MON dynstat_salt_sd              =   2.8356572952175E-01
(PID.TID 0000.0001) %MON dynstat_salt_del2            =   2.1122151595044E-08
(PID.TID 0000.0001) %MON trAdv_CFL_u_max              =   2.2373046504198E-03
(PID.TID 0000.0001) %MON trAdv_CFL_v_max              =   1.9336842275741E-03
(PID.TID 0000.0001) %MON trAdv_CFL_w_max              =   2.5971488526810E-03
(PID.TID 0000.0001) %MON advcfl_uvel_max              =   2.3007153416383E-03
(PID.TID 0000.0001) %MON advcfl_vvel_max              =   1.8725962892163E-03
(PID.TID 0000.0001) %MON advcfl_wvel_max              =   2.4553221098271E-03
(PID.TID 0000.0001) %MON advcfl_W_hf_max              =   2.5780882153184E-03
(PID.TID 0000.0001) %MON pe_b_mean                    =   9.0723356489374E-09
(PID.TID 0000.0001) %MON ke_max                       =   4.5035379059459E-03
(PID.TID 0000.0001) %MON ke_mean                      =   9.0036885398390E-06
(PID.TID 0000.0001) %MON ke_vol                       =   1.0416098804501E+14
(PID.TID 0000.0001) %MON vort_r_min                   =  -2.2091238816875E-05
(PID.TID 0000.0001) %MON vort_r_max                   =   2.0241397738687E-05
(PID.TID 0000.0001) %MON vort_a_mean                  =   6.9456055905738E-04
(PID.TID 0000.0001) %MON vort_a_sd                    =   7.8761426541228E-07
(PID.TID 0000.0001) %MON vort_p_mean                  =   7.0575608364114E-04
(PID.TID 0000.0001) %MON vort_p_sd                    =   1.5174854489268E-04
(PID.TID 0000.0001) %MON surfExpan_theta_mean         =   1.5042685040873E-12
(PID.TID 0000.0001) %MON surfExpan_salt_mean          =  -8.5541757768000E-21
(PID.TID 0000.0001) // =======================================================
(PID.TID 0000.0001) // End MONITOR dynamic field statistics
(PID.TID 0000.0001) // =======================================================
(PID.TID 0000.0001) // =======================================================
(PID.TID 0000.0001) // Begin OBCS MONITOR field statistics
(PID.TID 0000.0001) // =======================================================
(PID.TID 0000.0001) %MON obc_S_vVel_max               =   6.5637510222235E-02
(PID.TID 0000.0001) %MON obc_S_vVel_min               =  -3.8782918467581E-04
(PID.TID 0000.0001) %MON obc_S_vVel_mean              =  -6.2136419039105E-20
(PID.TID 0000.0001) %MON obc_S_vVel_sd                =   2.9561745024427E-03
(PID.TID 0000.0001) %MON obc_S_vVel_Int               =  -2.9700686354772E-11
(PID.TID 0000.0001) // =======================================================
(PID.TID 0000.0001) // End OBCS MONITOR field statistics
(PID.TID 0000.0001) // =======================================================
 cg2d: Sum(rhs),rhsMax =   2.46735964992695E-12  9.03374430506933E-03
 cg2d: Sum(rhs),rhsMax =   2.52953213930596E-12  8.95079217517275E-03
 cg2d: Sum(rhs),rhsMax =   2.25419682919892E-12  9.08695210700455E-03
 cg2d: Sum(rhs),rhsMax =   2.45314879521175E-12  9.21230044841595E-03
 cg2d: Sum(rhs),rhsMax =   2.20268248085631E-12  9.32664724004252E-03
 cg2d: Sum(rhs),rhsMax =   2.39808173319034E-12  9.42983027803825E-03
 cg2d: Sum(rhs),rhsMax =   2.21689333557151E-12  9.52171529201044E-03
 cg2d: Sum(rhs),rhsMax =   2.34301467116893E-12  9.60219603278927E-03
 cg2d: Sum(rhs),rhsMax =   2.39275266267214E-12  9.67119426913546E-03
 cg2d: Sum(rhs),rhsMax =   2.63788990650937E-12  9.72865969270646E-03
 cg2d: Sum(rhs),rhsMax =   2.03925765163149E-12  9.77456973090357E-03
 cg2d: Sum(rhs),rhsMax =   2.04636307898909E-12  9.80892926730967E-03
 cg2d: Sum(rhs),rhsMax =   2.15116813251370E-12  9.83177027163534E-03
 cg2d: Sum(rhs),rhsMax =   2.20978790821391E-12  9.84315133737186E-03
 cg2d: Sum(rhs),rhsMax =   2.02859951059509E-12  9.84315713130495E-03
 cg2d: Sum(rhs),rhsMax =   1.96287430753728E-12  9.84122926896452E-03
 cg2d: Sum(rhs),rhsMax =   1.91135995919467E-12  9.83847293765933E-03
 cg2d: Sum(rhs),rhsMax =   2.22222240608971E-12  9.82397367454512E-03
 cg2d: Sum(rhs),rhsMax =   1.78168590991845E-12  9.79794423380866E-03
 cg2d: Sum(rhs),rhsMax =   2.14406270515610E-12  9.76061915716357E-03
(PID.TID 0000.0001)      cg2d_init_res =   5.35382177595583E-01
(PID.TID 0000.0001)      cg2d_iters(min,last) =      -1      32
(PID.TID 0000.0001)      cg2d_last_res =   6.20832006396066E-08
(PID.TID 0000.0001) // =======================================================
(PID.TID 0000.0001) // Begin MONITOR dynamic field statistics
(PID.TID 0000.0001) // =======================================================
(PID.TID 0000.0001) %MON time_tsnumber                =                   940
(PID.TID 0000.0001) %MON time_secondsf                =   5.6400000000000E+04
(PID.TID 0000.0001) %MON dynstat_eta_max              =   5.0969358629121E-03
(PID.TID 0000.0001) %MON dynstat_eta_min              =  -8.8371521244433E-03
(PID.TID 0000.0001) %MON dynstat_eta_mean             =  -5.7015640043869E-19
(PID.TID 0000.0001) %MON dynstat_eta_sd               =   1.1498985500824E-03
(PID.TID 0000.0001) %MON dynstat_eta_del2             =   2.0197360100989E-07
(PID.TID 0000.0001) %MON dynstat_uvel_max             =   9.5116131621140E-02
(PID.TID 0000.0001) %MON dynstat_uvel_min             =  -3.1193556779673E-02
(PID.TID 0000.0001) %MON dynstat_uvel_mean            =  -3.0813104245472E-06
(PID.TID 0000.0001) %MON dynstat_uvel_sd              =   4.1756840756762E-03
(PID.TID 0000.0001) %MON dynstat_uvel_del2            =   4.4964567844869E-07
(PID.TID 0000.0001) %MON dynstat_vvel_max             =   2.4272717426994E-02
(PID.TID 0000.0001) %MON dynstat_vvel_min             =  -2.8153616511000E-02
(PID.TID 0000.0001) %MON dynstat_vvel_mean            =  -1.5631593118519E-05
(PID.TID 0000.0001) %MON dynstat_vvel_sd              =   6.9195440281934E-04
(PID.TID 0000.0001) %MON dynstat_vvel_del2            =   4.3111056702397E-07
(PID.TID 0000.0001) %MON dynstat_wvel_max             =   1.1165135757278E-04
(PID.TID 0000.0001) %MON dynstat_wvel_min             =  -2.0984807742923E-04
(PID.TID 0000.0001) %MON dynstat_wvel_mean            =  -3.8918115624299E-08
(PID.TID 0000.0001) %MON dynstat_wvel_sd              =   1.5739909671676E-06
(PID.TID 0000.0001) %MON dynstat_wvel_del2            =   4.8154455434298E-09
(PID.TID 0000.0001) %MON dynstat_theta_max            =   1.6579554187863E+01
(PID.TID 0000.0001) %MON dynstat_theta_min            =   4.1845467805978E+00
(PID.TID 0000.0001) %MON dynstat_theta_mean           =   8.3857347605991E+00
(PID.TID 0000.0001) %MON dynstat_theta_sd             =   3.8617585061277E+00
(PID.TID 0000.0001) %MON dynstat_theta_del2           =   5.9666474532298E-07
(PID.TID 0000.0001) %MON dynstat_salt_max             =   3.4476104944673E+01
(PID.TID 0000.0001) %MON dynstat_salt_min             =   3.3629428734876E+01
(PID.TID 0000.0001) %MON dynstat_salt_mean            =   3.4127681123799E+01
(PID.TID 0000.0001) %MON dynstat_salt_sd              =   2.8356577495349E-01
(PID.TID 0000.0001) %MON dynstat_salt_del2            =   2.1089055495566E-08
(PID.TID 0000.0001) %MON trAdv_CFL_u_max              =   2.8741011051110E-03
(PID.TID 0000.0001) %MON trAdv_CFL_v_max              =   7.1793861789285E-04
(PID.TID 0000.0001) %MON trAdv_CFL_w_max              =   2.0058695155886E-03
(PID.TID 0000.0001) %MON advcfl_uvel_max              =   2.8654471906552E-03
(PID.TID 0000.0001) %MON advcfl_vvel_max              =   7.2164088801263E-04
(PID.TID 0000.0001) %MON advcfl_wvel_max              =   1.8721512715925E-03
(PID.TID 0000.0001) %MON advcfl_W_hf_max              =   1.9657588351722E-03
(PID.TID 0000.0001) %MON pe_b_mean                    =   9.9039073836126E-09
(PID.TID 0000.0001) %MON ke_max                       =   4.5841054547031E-03
(PID.TID 0000.0001) %MON ke_mean                      =   8.9548854186582E-06
(PID.TID 0000.0001) %MON ke_vol                       =   1.0416098804501E+14
(PID.TID 0000.0001) %MON vort_r_min                   =  -3.5100606901423E-05
(PID.TID 0000.0001) %MON vort_r_max                   =   2.3154071478943E-05
(PID.TID 0000.0001) %MON vort_a_mean                  =   6.9456055905738E-04
(PID.TID 0000.0001) %MON vort_a_sd                    =   7.9850882465025E-07
(PID.TID 0000.0001) %MON vort_p_mean                  =   7.0575608364114E-04
(PID.TID 0000.0001) %MON vort_p_sd                    =   1.5174654834595E-04
(PID.TID 0000.0001) %MON surfExpan_theta_mean         =  -3.7106636974275E-12
(PID.TID 0000.0001) %MON surfExpan_salt_mean          =   6.0611138525455E-22
(PID.TID 0000.0001) // =======================================================
(PID.TID 0000.0001) // End MONITOR dynamic field statistics
(PID.TID 0000.0001) // =======================================================
(PID.TID 0000.0001) // =======================================================
(PID.TID 0000.0001) // Begin OBCS MONITOR field statistics
(PID.TID 0000.0001) // =======================================================
(PID.TID 0000.0001) %MON obc_S_vVel_max               =   6.8814692243200E-03
(PID.TID 0000.0001) %MON obc_S_vVel_min               =  -1.1112792233351E-04
(PID.TID 0000.0001) %MON obc_S_vVel_mean              =  -7.1352825690838E-22
(PID.TID 0000.0001) %MON obc_S_vVel_sd                =   3.0976303375342E-04
(PID.TID 0000.0001) %MON obc_S_vVel_Int               =  -3.4106051316485E-13
(PID.TID 0000.0001) // =======================================================
(PID.TID 0000.0001) // End OBCS MONITOR field statistics
(PID.TID 0000.0001) // =======================================================
 cg2d: Sum(rhs),rhsMax =   2.15383266777280E-12  9.71755674507517E-03
 cg2d: Sum(rhs),rhsMax =   2.09698924891200E-12  9.67107800356312E-03
 cg2d: Sum(rhs),rhsMax =   2.28883578756722E-12  9.61367330262623E-03
 cg2d: Sum(rhs),rhsMax =   2.03836947321179E-12  9.54566127445626E-03
 cg2d: Sum(rhs),rhsMax =   2.14050999147730E-12  9.46737664532781E-03
 cg2d: Sum(rhs),rhsMax =   2.34923192010683E-12  9.38527132007325E-03
 cg2d: Sum(rhs),rhsMax =   2.15383266777280E-12  9.30180893923204E-03
 cg2d: Sum(rhs),rhsMax =   2.38964403820319E-12  9.20866612076437E-03
 cg2d: Sum(rhs),rhsMax =   2.45714559810040E-12  9.10623502151221E-03
 cg2d: Sum(rhs),rhsMax =   2.43094433471924E-12  9.00253753185136E-03
 cg2d: Sum(rhs),rhsMax =   2.39408493030169E-12  8.89915847568160E-03
 cg2d: Sum(rhs),rhsMax =   2.49578135935735E-12  8.78715947061486E-03
 cg2d: Sum(rhs),rhsMax =   2.50488518815928E-12  8.66697159463558E-03
 cg2d: Sum(rhs),rhsMax =   2.43316478076849E-12  8.54485345642366E-03
 cg2d: Sum(rhs),rhsMax =   2.62145860574492E-12  8.42888438358501E-03
 cg2d: Sum(rhs),rhsMax =   2.54962717605167E-12  8.30547958370401E-03
 cg2d: Sum(rhs),rhsMax =   2.57499577216436E-12  8.17508829019077E-03
 cg2d: Sum(rhs),rhsMax =   2.67375011020476E-12  8.03816556220018E-03
 cg2d: Sum(rhs),rhsMax =   2.65154564971226E-12  7.89517082621376E-03
 cg2d: Sum(rhs),rhsMax =   2.54840593072458E-12  7.74656643782738E-03
(PID.TID 0000.0001)      cg2d_init_res =   9.52361053302104E-01
(PID.TID 0000.0001)      cg2d_iters(min,last) =      -1      32
(PID.TID 0000.0001)      cg2d_last_res =   8.76191169106989E-08
(PID.TID 0000.0001) // =======================================================
(PID.TID 0000.0001) // Begin MONITOR dynamic field statistics
(PID.TID 0000.0001) // =======================================================
(PID.TID 0000.0001) %MON time_tsnumber                =                   960
(PID.TID 0000.0001) %MON time_secondsf                =   5.7600000000000E+04
(PID.TID 0000.0001) %MON dynstat_eta_max              =   3.9473798102531E-03
(PID.TID 0000.0001) %MON dynstat_eta_min              =  -7.0181147455442E-03
(PID.TID 0000.0001) %MON dynstat_eta_mean             =  -5.5190444249782E-19
(PID.TID 0000.0001) %MON dynstat_eta_sd               =   8.4351981682567E-04
(PID.TID 0000.0001) %MON dynstat_eta_del2             =   2.1191363152519E-07
(PID.TID 0000.0001) %MON dynstat_uvel_max             =   6.2638605936573E-02
(PID.TID 0000.0001) %MON dynstat_uvel_min             =  -2.7212252051365E-02
(PID.TID 0000.0001) %MON dynstat_uvel_mean            =  -1.6385804293856E-05
(PID.TID 0000.0001) %MON dynstat_uvel_sd              =   2.3916026770893E-03
(PID.TID 0000.0001) %MON dynstat_uvel_del2            =   4.3918805665612E-07
(PID.TID 0000.0001) %MON dynstat_vvel_max             =   1.8641053812721E-02
(PID.TID 0000.0001) %MON dynstat_vvel_min             =  -7.9385955045462E-02
(PID.TID 0000.0001) %MON dynstat_vvel_mean            =   2.3703970258071E-06
(PID.TID 0000.0001) %MON dynstat_vvel_sd              =   3.4835453738405E-03
(PID.TID 0000.0001) %MON dynstat_vvel_del2            =   3.9944719130849E-07
(PID.TID 0000.0001) %MON dynstat_wvel_max             =   1.0160882001101E-04
(PID.TID 0000.0001) %MON dynstat_wvel_min             =  -2.0049988885182E-04
(PID.TID 0000.0001) %MON dynstat_wvel_mean            =   2.4308782817112E-07
(PID.TID 0000.0001) %MON dynstat_wvel_sd              =   1.7065362638852E-06
(PID.TID 0000.0001) %MON dynstat_wvel_del2            =   4.7397783492294E-09
(PID.TID 0000.0001) %MON dynstat_theta_max            =   1.6579532776389E+01
(PID.TID 0000.0001) %MON dynstat_theta_min            =   4.1845516697207E+00
(PID.TID 0000.0001) %MON dynstat_theta_mean           =   8.3857322596355E+00
(PID.TID 0000.0001) %MON dynstat_theta_sd             =   3.8617548277721E+00
(PID.TID 0000.0001) %MON dynstat_theta_del2           =   5.9579004452866E-07
(PID.TID 0000.0001) %MON dynstat_salt_max             =   3.4476104446351E+01
(PID.TID 0000.0001) %MON dynstat_salt_min             =   3.3629435228833E+01
(PID.TID 0000.0001) %MON dynstat_salt_mean            =   3.4127681271011E+01
(PID.TID 0000.0001) %MON dynstat_salt_sd              =   2.8356560873187E-01
(PID.TID 0000.0001) %MON dynstat_salt_del2            =   2.1131328641376E-08
(PID.TID 0000.0001) %MON trAdv_CFL_u_max              =   1.9517473877881E-03
(PID.TID 0000.0001) %MON trAdv_CFL_v_max              =   1.9924750732646E-03
(PID.TID 0000.0001) %MON trAdv_CFL_w_max              =   1.6854765478274E-03
(PID.TID 0000.0001) %MON advcfl_uvel_max              =   1.8870365557173E-03
(PID.TID 0000.0001) %MON advcfl_vvel_max              =   2.0348416365036E-03
(PID.TID 0000.0001) %MON advcfl_wvel_max              =   1.7680106998891E-03
(PID.TID 0000.0001) %MON advcfl_W_hf_max              =   1.8564112348836E-03
(PID.TID 0000.0001) %MON pe_b_mean                    =   5.3293972994209E-09
(PID.TID 0000.0001) %MON ke_max                       =   4.2395070408056E-03
(PID.TID 0000.0001) %MON ke_mean                      =   8.9094679651779E-06
(PID.TID 0000.0001) %MON ke_vol                       =   1.0416098804501E+14
(PID.TID 0000.0001) %MON vort_r_min                   =  -2.6360372547941E-05
(PID.TID 0000.0001) %MON vort_r_max                   =   1.8849277699961E-05
(PID.TID 0000.0001) %MON vort_a_mean                  =   6.9456055905738E-04
(PID.TID 0000.0001) %MON vort_a_sd                    =   7.9063890770300E-07
(PID.TID 0000.0001) %MON vort_p_mean                  =   7.0575608364114E-04
(PID.TID 0000.0001) %MON vort_p_sd                    =   1.5174732819516E-04
(PID.TID 0000.0001) %MON surfExpan_theta_mean         =  -4.3878911971836E-12
(PID.TID 0000.0001) %MON surfExpan_salt_mean          =   2.1156718164545E-22
(PID.TID 0000.0001) // =======================================================
(PID.TID 0000.0001) // End MONITOR dynamic field statistics
(PID.TID 0000.0001) // =======================================================
(PID.TID 0000.0001) // =======================================================
(PID.TID 0000.0001) // Begin OBCS MONITOR field statistics
(PID.TID 0000.0001) // =======================================================
(PID.TID 0000.0001) %MON obc_S_vVel_max               =   2.7139144223634E-04
(PID.TID 0000.0001) %MON obc_S_vVel_min               =  -5.6232491484946E-02
(PID.TID 0000.0001) %MON obc_S_vVel_mean              =   4.1741403029140E-20
(PID.TID 0000.0001) %MON obc_S_vVel_sd                =   2.5350034034974E-03
(PID.TID 0000.0001) %MON obc_S_vVel_Int               =   1.9952040020144E-11
(PID.TID 0000.0001) // =======================================================
(PID.TID 0000.0001) // End OBCS MONITOR field statistics
(PID.TID 0000.0001) // =======================================================
 cg2d: Sum(rhs),rhsMax =   2.68274291670423E-12  7.61069724467808E-03
 cg2d: Sum(rhs),rhsMax =   2.72626365926953E-12  7.48579834267042E-03
 cg2d: Sum(rhs),rhsMax =   2.77111666946439E-12  7.35590104325717E-03
 cg2d: Sum(rhs),rhsMax =   2.90079071874061E-12  7.22142420116755E-03
 cg2d: Sum(rhs),rhsMax =   3.00071079095687E-12  7.08278648123902E-03
 cg2d: Sum(rhs),rhsMax =   3.04511971194188E-12  6.94040520260303E-03
 cg2d: Sum(rhs),rhsMax =   3.07975867031018E-12  6.79469522702519E-03
 cg2d: Sum(rhs),rhsMax =   3.12549985892474E-12  6.64606789505910E-03
 cg2d: Sum(rhs),rhsMax =   3.04734015799113E-12  6.50001484799139E-03
 cg2d: Sum(rhs),rhsMax =   3.21787041457355E-12  6.39320289165284E-03
 cg2d: Sum(rhs),rhsMax =   3.39728245535298E-12  6.28363997437769E-03
 cg2d: Sum(rhs),rhsMax =   3.48610029732299E-12  6.17164756030088E-03
 cg2d: Sum(rhs),rhsMax =   3.44524409001679E-12  6.05754409085281E-03
 cg2d: Sum(rhs),rhsMax =   3.32711636019667E-12  6.00494237140492E-03
 cg2d: Sum(rhs),rhsMax =   3.43280959214098E-12  6.15060230586092E-03
 cg2d: Sum(rhs),rhsMax =   3.57225360403390E-12  6.30247786864563E-03
 cg2d: Sum(rhs),rhsMax =   3.30224736444507E-12  6.50427562235378E-03
 cg2d: Sum(rhs),rhsMax =   3.23918669664636E-12  6.69741386299454E-03
 cg2d: Sum(rhs),rhsMax =   3.02957658959713E-12  6.88148055684218E-03
 cg2d: Sum(rhs),rhsMax =   3.08997272213674E-12  7.05608084487057E-03
(PID.TID 0000.0001)      cg2d_init_res =   9.20843398605181E-01
(PID.TID 0000.0001)      cg2d_iters(min,last) =      -1      32
(PID.TID 0000.0001)      cg2d_last_res =   6.58478840762049E-08
(PID.TID 0000.0001) // =======================================================
(PID.TID 0000.0001) // Begin MONITOR dynamic field statistics
(PID.TID 0000.0001) // =======================================================
(PID.TID 0000.0001) %MON time_tsnumber                =                   980
(PID.TID 0000.0001) %MON time_secondsf                =   5.8800000000000E+04
(PID.TID 0000.0001) %MON dynstat_eta_max              =   6.3914329835247E-03
(PID.TID 0000.0001) %MON dynstat_eta_min              =  -5.5331045194319E-03
(PID.TID 0000.0001) %MON dynstat_eta_mean             =  -5.7143723959244E-19
(PID.TID 0000.0001) %MON dynstat_eta_sd               =   7.1772443700232E-04
(PID.TID 0000.0001) %MON dynstat_eta_del2             =   2.1144829255739E-07
(PID.TID 0000.0001) %MON dynstat_uvel_max             =   1.8425120938672E-02
(PID.TID 0000.0001) %MON dynstat_uvel_min             =  -3.4604179418630E-02
(PID.TID 0000.0001) %MON dynstat_uvel_mean            =  -5.6811186262831E-06
(PID.TID 0000.0001) %MON dynstat_uvel_sd              =   1.0491776310413E-03
(PID.TID 0000.0001) %MON dynstat_uvel_del2            =   4.0905951268520E-07
(PID.TID 0000.0001) %MON dynstat_vvel_max             =   2.5873390625448E-02
(PID.TID 0000.0001) %MON dynstat_vvel_min             =  -9.2392872311314E-02
(PID.TID 0000.0001) %MON dynstat_vvel_mean            =   2.5982322593601E-05
(PID.TID 0000.0001) %MON dynstat_vvel_sd              =   4.0858484003871E-03
(PID.TID 0000.0001) %MON dynstat_vvel_del2            =   3.9033260319137E-07
(PID.TID 0000.0001) %MON dynstat_wvel_max             =   1.0228580300465E-04
(PID.TID 0000.0001) %MON dynstat_wvel_min             =  -1.9291049522614E-04
(PID.TID 0000.0001) %MON dynstat_wvel_mean            =   3.6625435794868E-07
(PID.TID 0000.0001) %MON dynstat_wvel_sd              =   1.7986497021004E-06
(PID.TID 0000.0001) %MON dynstat_wvel_del2            =   4.5974450470909E-09
(PID.TID 0000.0001) %MON dynstat_theta_max            =   1.6579511574421E+01
(PID.TID 0000.0001) %MON dynstat_theta_min            =   4.1845534685223E+00
(PID.TID 0000.0001) %MON dynstat_theta_mean           =   8.3857252845407E+00
(PID.TID 0000.0001) %MON dynstat_theta_sd             =   3.8617475637556E+00
(PID.TID 0000.0001) %MON dynstat_theta_del2           =   5.9396817900190E-07
(PID.TID 0000.0001) %MON dynstat_salt_max             =   3.4476104263008E+01
(PID.TID 0000.0001) %MON dynstat_salt_min             =   3.3629473267160E+01
(PID.TID 0000.0001) %MON dynstat_salt_mean            =   3.4127681691386E+01
(PID.TID 0000.0001) %MON dynstat_salt_sd              =   2.8356529230222E-01
(PID.TID 0000.0001) %MON dynstat_salt_del2            =   2.1241222664303E-08
(PID.TID 0000.0001) %MON trAdv_CFL_u_max              =   9.5522553199560E-04
(PID.TID 0000.0001) %MON trAdv_CFL_v_max              =   2.3857481512938E-03
(PID.TID 0000.0001) %MON trAdv_CFL_w_max              =   1.5792016320273E-03
(PID.TID 0000.0001) %MON advcfl_uvel_max              =   1.0424777270694E-03
(PID.TID 0000.0001) %MON advcfl_vvel_max              =   2.3682889410141E-03
(PID.TID 0000.0001) %MON advcfl_wvel_max              =   1.6393135055722E-03
(PID.TID 0000.0001) %MON advcfl_W_hf_max              =   1.7212791808508E-03
(PID.TID 0000.0001) %MON pe_b_mean                    =   3.8583621115909E-09
(PID.TID 0000.0001) %MON ke_max                       =   4.1436593285067E-03
(PID.TID 0000.0001) %MON ke_mean                      =   8.8607504285251E-06
(PID.TID 0000.0001) %MON ke_vol                       =   1.0416098804501E+14
(PID.TID 0000.0001) %MON vort_r_min                   =  -1.7224857193637E-05
(PID.TID 0000.0001) %MON vort_r_max                   =   1.2904214544800E-05
(PID.TID 0000.0001) %MON vort_a_mean                  =   6.9456055905738E-04
(PID.TID 0000.0001) %MON vort_a_sd                    =   7.8063846015651E-07
(PID.TID 0000.0001) %MON vort_p_mean                  =   7.0575608364114E-04
(PID.TID 0000.0001) %MON vort_p_sd                    =   1.5175144227432E-04
(PID.TID 0000.0001) %MON surfExpan_theta_mean         =  -1.3525628865123E-12
(PID.TID 0000.0001) %MON surfExpan_salt_mean          =   3.4308191618182E-22
(PID.TID 0000.0001) // =======================================================
(PID.TID 0000.0001) // End MONITOR dynamic field statistics
(PID.TID 0000.0001) // =======================================================
(PID.TID 0000.0001) // =======================================================
(PID.TID 0000.0001) // Begin OBCS MONITOR field statistics
(PID.TID 0000.0001) // =======================================================
(PID.TID 0000.0001) %MON obc_S_vVel_max               =   4.4082045255303E-04
(PID.TID 0000.0001) %MON obc_S_vVel_min               =  -8.2209537600477E-02
(PID.TID 0000.0001) %MON obc_S_vVel_mean              =  -3.5676412845419E-20
(PID.TID 0000.0001) %MON obc_S_vVel_sd                =   3.7072139534923E-03
(PID.TID 0000.0001) %MON obc_S_vVel_Int               =  -1.7053025658242E-11
(PID.TID 0000.0001) // =======================================================
(PID.TID 0000.0001) // End OBCS MONITOR field statistics
(PID.TID 0000.0001) // =======================================================
 cg2d: Sum(rhs),rhsMax =   2.96296320811962E-12  7.22083813944628E-03
 cg2d: Sum(rhs),rhsMax =   2.97051272468707E-12  7.37539516557808E-03
 cg2d: Sum(rhs),rhsMax =   2.77422529393334E-12  7.51941494481115E-03
 cg2d: Sum(rhs),rhsMax =   2.86148882366888E-12  7.68449027591178E-03
 cg2d: Sum(rhs),rhsMax =   2.80220291415390E-12  7.84940274779018E-03
 cg2d: Sum(rhs),rhsMax =   2.83839618475668E-12  8.00199219944241E-03
 cg2d: Sum(rhs),rhsMax =   2.74558153989801E-12  8.14192821030332E-03
 cg2d: Sum(rhs),rhsMax =   2.65937272203587E-12  8.27533321540068E-03
 cg2d: Sum(rhs),rhsMax =   2.71027644771493E-12  8.43249935709580E-03
 cg2d: Sum(rhs),rhsMax =   2.59914312294995E-12  8.57545521354802E-03
 cg2d: Sum(rhs),rhsMax =   2.39808173319034E-12  8.70390587540316E-03
 cg2d: Sum(rhs),rhsMax =   2.56661358832844E-12  8.81759122857711E-03
 cg2d: Sum(rhs),rhsMax =   2.70095057430808E-12  8.91628674358970E-03
 cg2d: Sum(rhs),rhsMax =   2.36477504245158E-12  8.99980414711982E-03
 cg2d: Sum(rhs),rhsMax =   2.32969199487343E-12  9.10193527032959E-03
 cg2d: Sum(rhs),rhsMax =   2.54596344007041E-12  9.19420029153070E-03
 cg2d: Sum(rhs),rhsMax =   2.12452277992270E-12  9.27025491137836E-03
 cg2d: Sum(rhs),rhsMax =   1.90958360235527E-12  9.32998729606462E-03
 cg2d: Sum(rhs),rhsMax =   2.18047802036381E-12  9.37332584452109E-03
 cg2d: Sum(rhs),rhsMax =   2.28084218178992E-12  9.40023933604269E-03
(PID.TID 0000.0001)      cg2d_init_res =   4.70023435478291E-01
(PID.TID 0000.0001)      cg2d_iters(min,last) =      -1      31
(PID.TID 0000.0001)      cg2d_last_res =   7.13406950443518E-08
(PID.TID 0000.0001) // =======================================================
(PID.TID 0000.0001) // Begin MONITOR dynamic field statistics
(PID.TID 0000.0001) // =======================================================
(PID.TID 0000.0001) %MON time_tsnumber                =                  1000
(PID.TID 0000.0001) %MON time_secondsf                =   6.0000000000000E+04
(PID.TID 0000.0001) %MON dynstat_eta_max              =   8.5069677393434E-03
(PID.TID 0000.0001) %MON dynstat_eta_min              =  -6.8380934261849E-03
(PID.TID 0000.0001) %MON dynstat_eta_mean             =  -5.8753921752524E-19
(PID.TID 0000.0001) %MON dynstat_eta_sd               =   8.4462488197586E-04
(PID.TID 0000.0001) %MON dynstat_eta_del2             =   2.0877638694257E-07
(PID.TID 0000.0001) %MON dynstat_uvel_max             =   1.7606643769763E-02
(PID.TID 0000.0001) %MON dynstat_uvel_min             =  -8.2945764152364E-02
(PID.TID 0000.0001) %MON dynstat_uvel_mean            =   2.0109147613936E-05
(PID.TID 0000.0001) %MON dynstat_uvel_sd              =   3.6716824046991E-03
(PID.TID 0000.0001) %MON dynstat_uvel_del2            =   3.8421371953236E-07
(PID.TID 0000.0001) %MON dynstat_vvel_max             =   2.7043140455304E-02
(PID.TID 0000.0001) %MON dynstat_vvel_min             =  -5.6942561940349E-02
(PID.TID 0000.0001) %MON dynstat_vvel_mean            =   2.5801405515568E-05
(PID.TID 0000.0001) %MON dynstat_vvel_sd              =   2.0431453379344E-03
(PID.TID 0000.0001) %MON dynstat_vvel_del2            =   3.8142708252933E-07
(PID.TID 0000.0001) %MON dynstat_wvel_max             =   1.0732397086621E-04
(PID.TID 0000.0001) %MON dynstat_wvel_min             =  -1.9382859426968E-04
(PID.TID 0000.0001) %MON dynstat_wvel_mean            =   2.4879087048827E-07
(PID.TID 0000.0001) %MON dynstat_wvel_sd              =   1.6195692152350E-06
(PID.TID 0000.0001) %MON dynstat_wvel_del2            =   4.4347263328834E-09
(PID.TID 0000.0001) %MON dynstat_theta_max            =   1.6579489609244E+01
(PID.TID 0000.0001) %MON dynstat_theta_min            =   4.1845517449482E+00
(PID.TID 0000.0001) %MON dynstat_theta_mean           =   8.3857184015254E+00
(PID.TID 0000.0001) %MON dynstat_theta_sd             =   3.8617404911571E+00
(PID.TID 0000.0001) %MON dynstat_theta_del2           =   5.8710093021507E-07
(PID.TID 0000.0001) %MON dynstat_salt_max             =   3.4476104438691E+01
(PID.TID 0000.0001) %MON dynstat_salt_min             =   3.3629536149308E+01
(PID.TID 0000.0001) %MON dynstat_salt_mean            =   3.4127682109534E+01
(PID.TID 0000.0001) %MON dynstat_salt_sd              =   2.8356498524924E-01
(PID.TID 0000.0001) %MON dynstat_salt_del2            =   2.1209614321541E-08
(PID.TID 0000.0001) %MON trAdv_CFL_u_max              =   2.4505657943891E-03
(PID.TID 0000.0001) %MON trAdv_CFL_v_max              =   1.5213000150855E-03
(PID.TID 0000.0001) %MON trAdv_CFL_w_max              =   1.6058391090741E-03
(PID.TID 0000.0001) %MON advcfl_uvel_max              =   2.4988054372716E-03
(PID.TID 0000.0001) %MON advcfl_vvel_max              =   1.4595978709477E-03
(PID.TID 0000.0001) %MON advcfl_wvel_max              =   1.7357659706785E-03
(PID.TID 0000.0001) %MON advcfl_W_hf_max              =   1.8442513438459E-03
(PID.TID 0000.0001) %MON pe_b_mean                    =   5.3433701517728E-09
(PID.TID 0000.0001) %MON ke_max                       =   4.2226377628414E-03
(PID.TID 0000.0001) %MON ke_mean                      =   8.8101258672950E-06
(PID.TID 0000.0001) %MON ke_vol                       =   1.0416098804501E+14
(PID.TID 0000.0001) %MON vort_r_min                   =  -1.4751770554135E-05
(PID.TID 0000.0001) %MON vort_r_max                   =   2.5795791508912E-05
(PID.TID 0000.0001) %MON vort_a_mean                  =   6.9456055905738E-04
(PID.TID 0000.0001) %MON vort_a_sd                    =   7.9021663226360E-07
(PID.TID 0000.0001) %MON vort_p_mean                  =   7.0575608364114E-04
(PID.TID 0000.0001) %MON vort_p_sd                    =   1.5175685428901E-04
(PID.TID 0000.0001) %MON surfExpan_theta_mean         =   1.6057221562989E-12
(PID.TID 0000.0001) %MON surfExpan_salt_mean          =   5.7065958724909E-21
(PID.TID 0000.0001) // =======================================================
(PID.TID 0000.0001) // End MONITOR dynamic field statistics
(PID.TID 0000.0001) // =======================================================
(PID.TID 0000.0001) // =======================================================
(PID.TID 0000.0001) // Begin OBCS MONITOR field statistics
(PID.TID 0000.0001) // =======================================================
(PID.TID 0000.0001) %MON obc_S_vVel_max               =   3.4160605163640E-04
(PID.TID 0000.0001) %MON obc_S_vVel_min               =  -5.4627464245487E-02
(PID.TID 0000.0001) %MON obc_S_vVel_mean              =   9.6920921563388E-20
(PID.TID 0000.0001) %MON obc_S_vVel_sd                =   2.4623543342158E-03
(PID.TID 0000.0001) %MON obc_S_vVel_Int               =   4.6327386371559E-11
(PID.TID 0000.0001) // =======================================================
(PID.TID 0000.0001) // End OBCS MONITOR field statistics
(PID.TID 0000.0001) // =======================================================
 cg2d: Sum(rhs),rhsMax =   2.23820961764432E-12  9.41073694050835E-03
 cg2d: Sum(rhs),rhsMax =   2.41229258790554E-12  9.40486809089221E-03
 cg2d: Sum(rhs),rhsMax =   2.17337259300621E-12  9.38272221872723E-03
 cg2d: Sum(rhs),rhsMax =   2.50022225145585E-12  9.37127547311382E-03
 cg2d: Sum(rhs),rhsMax =   2.33946195749013E-12  9.37841005143871E-03
 cg2d: Sum(rhs),rhsMax =   2.30038210702332E-12  9.36894964939567E-03
 cg2d: Sum(rhs),rhsMax =   2.72493139163998E-12  9.34303951597893E-03
 cg2d: Sum(rhs),rhsMax =   2.17603712826531E-12  9.30086307961919E-03
 cg2d: Sum(rhs),rhsMax =   2.29682939334452E-12  9.24264106253429E-03
 cg2d: Sum(rhs),rhsMax =   1.60937929649663E-12  9.16863050272029E-03
 cg2d: Sum(rhs),rhsMax =   2.08011385893769E-12  9.09826470744420E-03
 cg2d: Sum(rhs),rhsMax =   2.23465690396552E-12  9.04183998820812E-03
 cg2d: Sum(rhs),rhsMax =   3.03757019537443E-12  8.96994482958065E-03
 cg2d: Sum(rhs),rhsMax =   2.85638179775560E-12  8.88288030122413E-03
 cg2d: Sum(rhs),rhsMax =   2.80486744941300E-12  8.78097877312755E-03
 cg2d: Sum(rhs),rhsMax =   2.59170462868497E-12  8.66736621199097E-03
 cg2d: Sum(rhs),rhsMax =   2.54551935086056E-12  8.57098042494677E-03
 cg2d: Sum(rhs),rhsMax =   2.63966626334877E-12  8.46049843830615E-03
 cg2d: Sum(rhs),rhsMax =   2.28084218178992E-12  8.33629937695021E-03
 cg2d: Sum(rhs),rhsMax =   2.61479726759717E-12  8.19879045250172E-03
(PID.TID 0000.0001)      cg2d_init_res =   5.14234547891664E-01
(PID.TID 0000.0001)      cg2d_iters(min,last) =      -1      31
(PID.TID 0000.0001)      cg2d_last_res =   6.76204461533882E-08
(PID.TID 0000.0001) // =======================================================
(PID.TID 0000.0001) // Begin MONITOR dynamic field statistics
(PID.TID 0000.0001) // =======================================================
(PID.TID 0000.0001) %MON time_tsnumber                =                  1020
(PID.TID 0000.0001) %MON time_secondsf                =   6.1200000000000E+04
(PID.TID 0000.0001) %MON dynstat_eta_max              =   7.4109376513230E-03
(PID.TID 0000.0001) %MON dynstat_eta_min              =  -6.4015703050276E-03
(PID.TID 0000.0001) %MON dynstat_eta_mean             =  -6.4627484157556E-19
(PID.TID 0000.0001) %MON dynstat_eta_sd               =   8.1267303381648E-04
(PID.TID 0000.0001) %MON dynstat_eta_del2             =   2.3392180534273E-07
(PID.TID 0000.0001) %MON dynstat_uvel_max             =   2.3980511092164E-02
(PID.TID 0000.0001) %MON dynstat_uvel_min             =  -8.8012827551488E-02
(PID.TID 0000.0001) %MON dynstat_uvel_mean            =   3.3438287486091E-05
(PID.TID 0000.0001) %MON dynstat_uvel_sd              =   3.9400289909253E-03
(PID.TID 0000.0001) %MON dynstat_uvel_del2            =   3.7509267644866E-07
(PID.TID 0000.0001) %MON dynstat_vvel_max             =   4.1889548873065E-02
(PID.TID 0000.0001) %MON dynstat_vvel_min             =  -1.0282746087889E-02
(PID.TID 0000.0001) %MON dynstat_vvel_mean            =  -2.7818530587859E-06
(PID.TID 0000.0001) %MON dynstat_vvel_sd              =   1.4161589122385E-03
(PID.TID 0000.0001) %MON dynstat_vvel_del2            =   3.6759564872140E-07
(PID.TID 0000.0001) %MON dynstat_wvel_max             =   1.1596768913923E-04
(PID.TID 0000.0001) %MON dynstat_wvel_min             =  -1.9454864990682E-04
(PID.TID 0000.0001) %MON dynstat_wvel_mean            =  -3.0373047592681E-08
(PID.TID 0000.0001) %MON dynstat_wvel_sd              =   1.5435216837970E-06
(PID.TID 0000.0001) %MON dynstat_wvel_del2            =   4.4089200792782E-09
(PID.TID 0000.0001) %MON dynstat_theta_max            =   1.6579466623912E+01
(PID.TID 0000.0001) %MON dynstat_theta_min            =   4.1845505666020E+00
(PID.TID 0000.0001) %MON dynstat_theta_mean           =   8.3857161300002E+00
(PID.TID 0000.0001) %MON dynstat_theta_sd             =   3.8617372864572E+00
(PID.TID 0000.0001) %MON dynstat_theta_del2           =   5.7287898568703E-07
(PID.TID 0000.0001) %MON dynstat_salt_max             =   3.4476104558795E+01
(PID.TID 0000.0001) %MON dynstat_salt_min             =   3.3629609386784E+01
(PID.TID 0000.0001) %MON dynstat_salt_mean            =   3.4127682251090E+01
(PID.TID 0000.0001) %MON dynstat_salt_sd              =   2.8356484219173E-01
(PID.TID 0000.0001) %MON dynstat_salt_del2            =   2.0874872945466E-08
(PID.TID 0000.0001) %MON trAdv_CFL_u_max              =   2.6802987627644E-03
(PID.TID 0000.0001) %MON trAdv_CFL_v_max              =   9.9789747023876E-04
(PID.TID 0000.0001) %MON trAdv_CFL_w_max              =   2.1554951795051E-03
(PID.TID 0000.0001) %MON advcfl_uvel_max              =   2.6515093459939E-03
(PID.TID 0000.0001) %MON advcfl_vvel_max              =   1.0737239116473E-03
(PID.TID 0000.0001) %MON advcfl_wvel_max              =   2.3052279248389E-03
(PID.TID 0000.0001) %MON advcfl_W_hf_max              =   2.4493046701414E-03
(PID.TID 0000.0001) %MON pe_b_mean                    =   4.9467414983148E-09
(PID.TID 0000.0001) %MON ke_max                       =   4.2199093520922E-03
(PID.TID 0000.0001) %MON ke_mean                      =   8.7625343912216E-06
(PID.TID 0000.0001) %MON ke_vol                       =   1.0416098804501E+14
(PID.TID 0000.0001) %MON vort_r_min                   =  -1.3432912217992E-05
(PID.TID 0000.0001) %MON vort_r_max                   =   3.4860690011908E-05
(PID.TID 0000.0001) %MON vort_a_mean                  =   6.9456055905738E-04
(PID.TID 0000.0001) %MON vort_a_sd                    =   7.9799230047799E-07
(PID.TID 0000.0001) %MON vort_p_mean                  =   7.0575608364114E-04
(PID.TID 0000.0001) %MON vort_p_sd                    =   1.5175957383632E-04
(PID.TID 0000.0001) %MON surfExpan_theta_mean         =   1.1769260890754E-12
(PID.TID 0000.0001) %MON surfExpan_salt_mean          =  -3.0877372456364E-22
(PID.TID 0000.0001) // =======================================================
(PID.TID 0000.0001) // End MONITOR dynamic field statistics
(PID.TID 0000.0001) // =======================================================
(PID.TID 0000.0001) // =======================================================
(PID.TID 0000.0001) // Begin OBCS MONITOR field statistics
(PID.TID 0000.0001) // =======================================================
(PID.TID 0000.0001) %MON obc_S_vVel_max               =   8.8045345843841E-03
(PID.TID 0000.0001) %MON obc_S_vVel_min               =  -8.5468320238411E-05
(PID.TID 0000.0001) %MON obc_S_vVel_mean              =   2.9730344037849E-21
(PID.TID 0000.0001) %MON obc_S_vVel_sd                =   3.9671302255618E-04
(PID.TID 0000.0001) %MON obc_S_vVel_Int               =   1.4210854715202E-12
(PID.TID 0000.0001) // =======================================================
(PID.TID 0000.0001) // End OBCS MONITOR field statistics
(PID.TID 0000.0001) // =======================================================
 cg2d: Sum(rhs),rhsMax =   2.79243295153719E-12  8.04840583333106E-03
 cg2d: Sum(rhs),rhsMax =   2.31636931857793E-12  7.88560547663772E-03
 cg2d: Sum(rhs),rhsMax =   2.35900188272353E-12  7.71087392277552E-03
 cg2d: Sum(rhs),rhsMax =   2.88125079350721E-12  7.58250641377080E-03
 cg2d: Sum(rhs),rhsMax =   2.30215846386272E-12  7.49003080344162E-03
 cg2d: Sum(rhs),rhsMax =   2.91677793029521E-12  7.40634451817684E-03
 cg2d: Sum(rhs),rhsMax =   2.71072053692478E-12  7.44988946988855E-03
 cg2d: Sum(rhs),rhsMax =   2.88480350718601E-12  7.48979582586249E-03
 cg2d: Sum(rhs),rhsMax =   2.51176857091195E-12  7.52591470300950E-03
 cg2d: Sum(rhs),rhsMax =   2.61834998127597E-12  7.55810098342040E-03
 cg2d: Sum(rhs),rhsMax =   2.56505927609396E-12  7.58621377215689E-03
 cg2d: Sum(rhs),rhsMax =   3.08020275952003E-12  7.61011683871144E-03
 cg2d: Sum(rhs),rhsMax =   2.70006239588838E-12  7.62967903886921E-03
 cg2d: Sum(rhs),rhsMax =   3.10507175527164E-12  7.64477471381560E-03
 cg2d: Sum(rhs),rhsMax =   2.71072053692478E-12  7.65528406354696E-03
 cg2d: Sum(rhs),rhsMax =   2.90256707558001E-12  7.66109349202176E-03
 cg2d: Sum(rhs),rhsMax =   2.67874611381558E-12  7.66209592166526E-03
 cg2d: Sum(rhs),rhsMax =   3.04822833641083E-12  7.65819107622028E-03
 cg2d: Sum(rhs),rhsMax =   3.11217718262924E-12  7.64928573063064E-03
 cg2d: Sum(rhs),rhsMax =   2.82085466096760E-12  7.63529392826362E-03
(PID.TID 0000.0001)      cg2d_init_res =   7.33831407346714E-01
(PID.TID 0000.0001)      cg2d_iters(min,last) =      -1      32
(PID.TID 0000.0001)      cg2d_last_res =   7.11217742507954E-08
(PID.TID 0000.0001) // =======================================================
(PID.TID 0000.0001) // Begin MONITOR dynamic field statistics
(PID.TID 0000.0001) // =======================================================
(PID.TID 0000.0001) %MON time_tsnumber                =                  1040
(PID.TID 0000.0001) %MON time_secondsf                =   6.2400000000000E+04
(PID.TID 0000.0001) %MON dynstat_eta_max              =   4.8708096149481E-03
(PID.TID 0000.0001) %MON dynstat_eta_min              =  -6.9043030856412E-03
(PID.TID 0000.0001) %MON dynstat_eta_mean             =  -5.4527152545164E-19
(PID.TID 0000.0001) %MON dynstat_eta_sd               =   6.3685618784871E-04
(PID.TID 0000.0001) %MON dynstat_eta_del2             =   2.7590962491230E-07
(PID.TID 0000.0001) %MON dynstat_uvel_max             =   2.4791906340679E-02
(PID.TID 0000.0001) %MON dynstat_uvel_min             =  -5.0697576981073E-02
(PID.TID 0000.0001) %MON dynstat_uvel_mean            =   1.9164630418247E-05
(PID.TID 0000.0001) %MON dynstat_uvel_sd              =   1.6671410435694E-03
(PID.TID 0000.0001) %MON dynstat_uvel_del2            =   3.6238211555409E-07
(PID.TID 0000.0001) %MON dynstat_vvel_max             =   8.6136614317754E-02
(PID.TID 0000.0001) %MON dynstat_vvel_min             =  -1.5831888439439E-02
(PID.TID 0000.0001) %MON dynstat_vvel_mean            =  -3.1421626028005E-05
(PID.TID 0000.0001) %MON dynstat_vvel_sd              =   3.8348841683876E-03
(PID.TID 0000.0001) %MON dynstat_vvel_del2            =   3.7692680254182E-07
(PID.TID 0000.0001) %MON dynstat_wvel_max             =   1.3291909453679E-04
(PID.TID 0000.0001) %MON dynstat_wvel_min             =  -1.9070223567915E-04
(PID.TID 0000.0001) %MON dynstat_wvel_mean            =  -2.8680842638082E-07
(PID.TID 0000.0001) %MON dynstat_wvel_sd              =   1.7626718230487E-06
(PID.TID 0000.0001) %MON dynstat_wvel_del2            =   4.4783945713439E-09
(PID.TID 0000.0001) %MON dynstat_theta_max            =   1.6579443120072E+01
(PID.TID 0000.0001) %MON dynstat_theta_min            =   4.1845526807390E+00
(PID.TID 0000.0001) %MON dynstat_theta_mean           =   8.3857199034916E+00
(PID.TID 0000.0001) %MON dynstat_theta_sd             =   3.8617390441338E+00
(PID.TID 0000.0001) %MON dynstat_theta_del2           =   5.5636842415248E-07
(PID.TID 0000.0001) %MON dynstat_salt_max             =   3.4476104343313E+01
(PID.TID 0000.0001) %MON dynstat_salt_min             =   3.3629679467463E+01
(PID.TID 0000.0001) %MON dynstat_salt_mean            =   3.4127682027040E+01
(PID.TID 0000.0001) %MON dynstat_salt_sd              =   2.8356490790998E-01
(PID.TID 0000.0001) %MON dynstat_salt_del2            =   2.0467693379405E-08
(PID.TID 0000.0001) %MON trAdv_CFL_u_max              =   1.5954541188112E-03
(PID.TID 0000.0001) %MON trAdv_CFL_v_max              =   2.1798765421901E-03
(PID.TID 0000.0001) %MON trAdv_CFL_w_max              =   2.5243340771598E-03
(PID.TID 0000.0001) %MON advcfl_uvel_max              =   1.5273421464473E-03
(PID.TID 0000.0001) %MON advcfl_vvel_max              =   2.2078763068461E-03
(PID.TID 0000.0001) %MON advcfl_wvel_max              =   2.6897395037423E-03
(PID.TID 0000.0001) %MON advcfl_W_hf_max              =   2.8578482227262E-03
(PID.TID 0000.0001) %MON pe_b_mean                    =   3.0378775427225E-09
(PID.TID 0000.0001) %MON ke_max                       =   4.1235394544478E-03
(PID.TID 0000.0001) %MON ke_mean                      =   8.7193796006224E-06
(PID.TID 0000.0001) %MON ke_vol                       =   1.0416098804501E+14
(PID.TID 0000.0001) %MON vort_r_min                   =  -1.4531817348172E-05
(PID.TID 0000.0001) %MON vort_r_max                   =   2.4037790351559E-05
(PID.TID 0000.0001) %MON vort_a_mean                  =   6.9456055905738E-04
(PID.TID 0000.0001) %MON vort_a_sd                    =   7.8697192748213E-07
(PID.TID 0000.0001) %MON vort_p_mean                  =   7.0575608364114E-04
(PID.TID 0000.0001) %MON vort_p_sd                    =   1.5175741547120E-04
(PID.TID 0000.0001) %MON surfExpan_theta_mean         =  -2.7748502389604E-12
(PID.TID 0000.0001) %MON surfExpan_salt_mean          =  -4.1570092177364E-21
(PID.TID 0000.0001) // =======================================================
(PID.TID 0000.0001) // End MONITOR dynamic field statistics
(PID.TID 0000.0001) // =======================================================
(PID.TID 0000.0001) // =======================================================
(PID.TID 0000.0001) // Begin OBCS MONITOR field statistics
(PID.TID 0000.0001) // =======================================================
(PID.TID 0000.0001) %MON obc_S_vVel_max               =   6.5882674491187E-02
(PID.TID 0000.0001) %MON obc_S_vVel_min               =  -3.3489738298248E-04
(PID.TID 0000.0001) %MON obc_S_vVel_mean              =  -5.1136191745101E-21
(PID.TID 0000.0001) %MON obc_S_vVel_sd                =   2.9731587258708E-03
(PID.TID 0000.0001) %MON obc_S_vVel_Int               =  -2.4442670110147E-12
(PID.TID 0000.0001) // =======================================================
(PID.TID 0000.0001) // End OBCS MONITOR field statistics
(PID.TID 0000.0001) // =======================================================
 cg2d: Sum(rhs),rhsMax =   3.10507175527164E-12  7.61613716646952E-03
 cg2d: Sum(rhs),rhsMax =   2.75690581474919E-12  7.59174455255851E-03
 cg2d: Sum(rhs),rhsMax =   2.88480350718601E-12  7.56205293335146E-03
 cg2d: Sum(rhs),rhsMax =   3.16902060149005E-12  7.52700700252464E-03
 cg2d: Sum(rhs),rhsMax =   3.09086090055644E-12  7.49094842066293E-03
 cg2d: Sum(rhs),rhsMax =   2.84572365671920E-12  7.47184885113818E-03
 cg2d: Sum(rhs),rhsMax =   3.23296944770846E-12  7.44750519946291E-03
 cg2d: Sum(rhs),rhsMax =   3.28981286656926E-12  7.41788071603757E-03
 cg2d: Sum(rhs),rhsMax =   3.01270119962282E-12  7.38294639551869E-03
 cg2d: Sum(rhs),rhsMax =   3.17079695832945E-12  7.34268122938098E-03
 cg2d: Sum(rhs),rhsMax =   3.17257331516885E-12  7.29707248351938E-03
 cg2d: Sum(rhs),rhsMax =   2.85815815459500E-12  7.24611599752987E-03
 cg2d: Sum(rhs),rhsMax =   3.06954461848363E-12  7.18981650047848E-03
 cg2d: Sum(rhs),rhsMax =   3.24718030242366E-12  7.12818793629310E-03
 cg2d: Sum(rhs),rhsMax =   3.20810045195685E-12  7.06125379049706E-03
 cg2d: Sum(rhs),rhsMax =   3.30047100760567E-12  6.98904740894189E-03
 cg2d: Sum(rhs),rhsMax =   3.41060513164848E-12  6.91161229856261E-03
 cg2d: Sum(rhs),rhsMax =   3.25783844346006E-12  6.82900240002165E-03
 cg2d: Sum(rhs),rhsMax =   3.52429196937010E-12  6.74128232244495E-03
 cg2d: Sum(rhs),rhsMax =   3.54205553776410E-12  6.64852753127067E-03
(PID.TID 0000.0001)      cg2d_init_res =   8.92190404044633E-01
(PID.TID 0000.0001)      cg2d_iters(min,last) =      -1      32
(PID.TID 0000.0001)      cg2d_last_res =   9.67712528465645E-08
(PID.TID 0000.0001) // =======================================================
(PID.TID 0000.0001) // Begin MONITOR dynamic field statistics
(PID.TID 0000.0001) // =======================================================
(PID.TID 0000.0001) %MON time_tsnumber                =                  1060
(PID.TID 0000.0001) %MON time_secondsf                =   6.3600000000000E+04
(PID.TID 0000.0001) %MON dynstat_eta_max              =   3.0632490298658E-03
(PID.TID 0000.0001) %MON dynstat_eta_min              =  -5.9850658137700E-03
(PID.TID 0000.0001) %MON dynstat_eta_mean             =  -6.0199440226036E-19
(PID.TID 0000.0001) %MON dynstat_eta_sd               =   6.6512951858038E-04
(PID.TID 0000.0001) %MON dynstat_eta_del2             =   3.1451348488913E-07
(PID.TID 0000.0001) %MON dynstat_uvel_max             =   4.8458944070623E-02
(PID.TID 0000.0001) %MON dynstat_uvel_min             =  -1.0054289976134E-02
(PID.TID 0000.0001) %MON dynstat_uvel_mean            =  -7.7796314255217E-06
(PID.TID 0000.0001) %MON dynstat_uvel_sd              =   1.7746775798173E-03
(PID.TID 0000.0001) %MON dynstat_uvel_del2            =   3.4892785925286E-07
(PID.TID 0000.0001) %MON dynstat_vvel_max             =   8.5522614989490E-02
(PID.TID 0000.0001) %MON dynstat_vvel_min             =  -2.0739019501956E-02
(PID.TID 0000.0001) %MON dynstat_vvel_mean            =  -3.1202313637547E-05
(PID.TID 0000.0001) %MON dynstat_vvel_sd              =   3.7780020508161E-03
(PID.TID 0000.0001) %MON dynstat_vvel_del2            =   4.0599119011061E-07
(PID.TID 0000.0001) %MON dynstat_wvel_max             =   1.5320768913606E-04
(PID.TID 0000.0001) %MON dynstat_wvel_min             =  -1.8902518376109E-04
(PID.TID 0000.0001) %MON dynstat_wvel_mean            =  -3.5680446316008E-07
(PID.TID 0000.0001) %MON dynstat_wvel_sd              =   1.7475342581288E-06
(PID.TID 0000.0001) %MON dynstat_wvel_del2            =   4.4931042840277E-09
(PID.TID 0000.0001) %MON dynstat_theta_max            =   1.6579419972793E+01
(PID.TID 0000.0001) %MON dynstat_theta_min            =   4.1845572332145E+00
(PID.TID 0000.0001) %MON dynstat_theta_mean           =   8.3857272333268E+00
(PID.TID 0000.0001) %MON dynstat_theta_sd             =   3.8617436269309E+00
(PID.TID 0000.0001) %MON dynstat_theta_del2           =   5.4274742170346E-07
(PID.TID 0000.0001) %MON dynstat_salt_max             =   3.4476103879306E+01
(PID.TID 0000.0001) %MON dynstat_salt_min             =   3.3629739360655E+01
(PID.TID 0000.0001) %MON dynstat_salt_mean            =   3.4127681585196E+01
(PID.TID 0000.0001) %MON dynstat_salt_sd              =   2.8356509144188E-01
(PID.TID 0000.0001) %MON dynstat_salt_del2            =   2.0231475103215E-08
(PID.TID 0000.0001) %MON trAdv_CFL_u_max              =   1.3712999062243E-03
(PID.TID 0000.0001) %MON trAdv_CFL_v_max              =   2.2181159941649E-03
(PID.TID 0000.0001) %MON trAdv_CFL_w_max              =   2.8182375973311E-03
(PID.TID 0000.0001) %MON advcfl_uvel_max              =   1.4598632511924E-03
(PID.TID 0000.0001) %MON advcfl_vvel_max              =   2.1921849404547E-03
(PID.TID 0000.0001) %MON advcfl_wvel_max              =   2.9977251342611E-03
(PID.TID 0000.0001) %MON advcfl_W_hf_max              =   3.1850829551524E-03
(PID.TID 0000.0001) %MON pe_b_mean                    =   3.3135990903602E-09
(PID.TID 0000.0001) %MON ke_max                       =   4.1436401862947E-03
(PID.TID 0000.0001) %MON ke_mean                      =   8.6765714593180E-06
(PID.TID 0000.0001) %MON ke_vol                       =   1.0416098804501E+14
(PID.TID 0000.0001) %MON vort_r_min                   =  -1.7474318819309E-05
(PID.TID 0000.0001) %MON vort_r_max                   =   3.6461708904326E-05
(PID.TID 0000.0001) %MON vort_a_mean                  =   6.9456055905738E-04
(PID.TID 0000.0001) %MON vort_a_sd                    =   7.8070014086122E-07
(PID.TID 0000.0001) %MON vort_p_mean                  =   7.0575608364114E-04
(PID.TID 0000.0001) %MON vort_p_sd                    =   1.5175243377421E-04
(PID.TID 0000.0001) %MON surfExpan_theta_mean         =  -5.8455347790201E-12
(PID.TID 0000.0001) %MON surfExpan_salt_mean          =  -3.1677896927455E-21
(PID.TID 0000.0001) // =======================================================
(PID.TID 0000.0001) // End MONITOR dynamic field statistics
(PID.TID 0000.0001) // =======================================================
(PID.TID 0000.0001) // =======================================================
(PID.TID 0000.0001) // Begin OBCS MONITOR field statistics
(PID.TID 0000.0001) // =======================================================
(PID.TID 0000.0001) %MON obc_S_vVel_max               =   7.9847808467339E-02
(PID.TID 0000.0001) %MON obc_S_vVel_min               =  -4.4678541399600E-04
(PID.TID 0000.0001) %MON obc_S_vVel_mean              =   6.8023027158599E-20
(PID.TID 0000.0001) %MON obc_S_vVel_sd                =   3.6036615451335E-03
(PID.TID 0000.0001) %MON obc_S_vVel_Int               =   3.2514435588382E-11
(PID.TID 0000.0001) // =======================================================
(PID.TID 0000.0001) // End OBCS MONITOR field statistics
(PID.TID 0000.0001) // =======================================================
 cg2d: Sum(rhs),rhsMax =   3.32800453861637E-12  6.55082448148024E-03
 cg2d: Sum(rhs),rhsMax =   3.56603635509600E-12  6.44827069008539E-03
 cg2d: Sum(rhs),rhsMax =   3.67395003308957E-12  6.34097474360332E-03
 cg2d: Sum(rhs),rhsMax =   3.51807472043220E-12  6.22905623794254E-03
 cg2d: Sum(rhs),rhsMax =   4.04343225568482E-12  6.11264565176237E-03
 cg2d: Sum(rhs),rhsMax =   3.71599973014725E-12  5.99188415266626E-03
 cg2d: Sum(rhs),rhsMax =   3.74056341456708E-12  5.86692334145397E-03
 cg2d: Sum(rhs),rhsMax =   3.23607807217741E-12  5.73792493830676E-03
 cg2d: Sum(rhs),rhsMax =   3.55449003563990E-12  5.60506041669409E-03
 cg2d: Sum(rhs),rhsMax =   4.00302013758846E-12  5.46851059122794E-03
 cg2d: Sum(rhs),rhsMax =   4.01545463546427E-12  5.52727493668207E-03
 cg2d: Sum(rhs),rhsMax =   4.02877731175977E-12  5.66779056411342E-03
 cg2d: Sum(rhs),rhsMax =   3.82982534574694E-12  5.79768205797930E-03
 cg2d: Sum(rhs),rhsMax =   3.92219590139575E-12  5.91654530200756E-03
 cg2d: Sum(rhs),rhsMax =   3.44257955475769E-12  6.02400583226413E-03
 cg2d: Sum(rhs),rhsMax =   3.60067531346431E-12  6.11972058781292E-03
 cg2d: Sum(rhs),rhsMax =   3.28270743921166E-12  6.20337957438942E-03
 cg2d: Sum(rhs),rhsMax =   3.57580631771270E-12  6.27470743229279E-03
 cg2d: Sum(rhs),rhsMax =   3.84758891414094E-12  6.33401181179185E-03
 cg2d: Sum(rhs),rhsMax =   3.32178728967847E-12  6.42291264226765E-03
(PID.TID 0000.0001)      cg2d_init_res =   8.29748651645888E-01
(PID.TID 0000.0001)      cg2d_iters(min,last) =      -1      32
(PID.TID 0000.0001)      cg2d_last_res =   8.86354728282887E-08
(PID.TID 0000.0001) // =======================================================
(PID.TID 0000.0001) // Begin MONITOR dynamic field statistics
(PID.TID 0000.0001) // =======================================================
(PID.TID 0000.0001) %MON time_tsnumber                =                  1080
(PID.TID 0000.0001) %MON time_secondsf                =   6.4800000000000E+04
(PID.TID 0000.0001) %MON dynstat_eta_max              =   3.8702310837452E-03
(PID.TID 0000.0001) %MON dynstat_eta_min              =  -5.8184617133217E-03
(PID.TID 0000.0001) %MON dynstat_eta_mean             =  -5.8479456219578E-19
(PID.TID 0000.0001) %MON dynstat_eta_sd               =   8.4721143647027E-04
(PID.TID 0000.0001) %MON dynstat_eta_del2             =   3.1010553039739E-07
(PID.TID 0000.0001) %MON dynstat_uvel_max             =   8.8192109095286E-02
(PID.TID 0000.0001) %MON dynstat_uvel_min             =  -1.6625679435918E-02
(PID.TID 0000.0001) %MON dynstat_uvel_mean            =  -2.0505282580048E-05
(PID.TID 0000.0001) %MON dynstat_uvel_sd              =   3.9488170272661E-03
(PID.TID 0000.0001) %MON dynstat_uvel_del2            =   3.5663327533676E-07
(PID.TID 0000.0001) %MON dynstat_vvel_max             =   6.4014605644656E-02
(PID.TID 0000.0001) %MON dynstat_vvel_min             =  -1.9676808560084E-02
(PID.TID 0000.0001) %MON dynstat_vvel_mean            =  -6.9160986181285E-06
(PID.TID 0000.0001) %MON dynstat_vvel_sd              =   1.3014988047903E-03
(PID.TID 0000.0001) %MON dynstat_vvel_del2            =   4.2438498025928E-07
(PID.TID 0000.0001) %MON dynstat_wvel_max             =   1.6370516164839E-04
(PID.TID 0000.0001) %MON dynstat_wvel_min             =  -1.7003617005762E-04
(PID.TID 0000.0001) %MON dynstat_wvel_mean            =  -1.9463209775647E-07
(PID.TID 0000.0001) %MON dynstat_wvel_sd              =   1.4974877032990E-06
(PID.TID 0000.0001) %MON dynstat_wvel_del2            =   4.4843228130824E-09
(PID.TID 0000.0001) %MON dynstat_theta_max            =   1.6579397748793E+01
(PID.TID 0000.0001) %MON dynstat_theta_min            =   4.1845620015043E+00
(PID.TID 0000.0001) %MON dynstat_theta_mean           =   8.3857333624804E+00
(PID.TID 0000.0001) %MON dynstat_theta_sd             =   3.8617471030419E+00
(PID.TID 0000.0001) %MON dynstat_theta_del2           =   5.3061070674410E-07
(PID.TID 0000.0001) %MON dynstat_salt_max             =   3.4476103393302E+01
(PID.TID 0000.0001) %MON dynstat_salt_min             =   3.3629786572793E+01
(PID.TID 0000.0001) %MON dynstat_salt_mean            =   3.4127681212452E+01
(PID.TID 0000.0001) %MON dynstat_salt_sd              =   2.8356522706928E-01
(PID.TID 0000.0001) %MON dynstat_salt_del2            =   2.0036211583372E-08
(PID.TID 0000.0001) %MON trAdv_CFL_u_max              =   2.6275315005742E-03
(PID.TID 0000.0001) %MON trAdv_CFL_v_max              =   1.7913929620301E-03
(PID.TID 0000.0001) %MON trAdv_CFL_w_max              =   3.0286303017044E-03
(PID.TID 0000.0001) %MON advcfl_uvel_max              =   2.6568556451772E-03
(PID.TID 0000.0001) %MON advcfl_vvel_max              =   1.6408742235093E-03
(PID.TID 0000.0001) %MON advcfl_wvel_max              =   3.2311157721954E-03
(PID.TID 0000.0001) %MON advcfl_W_hf_max              =   3.4330605079576E-03
(PID.TID 0000.0001) %MON pe_b_mean                    =   5.3761470229356E-09
(PID.TID 0000.0001) %MON ke_max                       =   4.1570760890057E-03
(PID.TID 0000.0001) %MON ke_mean                      =   8.6317768932227E-06
(PID.TID 0000.0001) %MON ke_vol                       =   1.0416098804501E+14
(PID.TID 0000.0001) %MON vort_r_min                   =  -2.9400634275140E-05
(PID.TID 0000.0001) %MON vort_r_max                   =   4.4096201318680E-05
(PID.TID 0000.0001) %MON vort_a_mean                  =   6.9456055905738E-04
(PID.TID 0000.0001) %MON vort_a_sd                    =   7.9233798545753E-07
(PID.TID 0000.0001) %MON vort_p_mean                  =   7.0575608364114E-04
(PID.TID 0000.0001) %MON vort_p_sd                    =   1.5174796079475E-04
(PID.TID 0000.0001) %MON surfExpan_theta_mean         =  -3.9021011591331E-12
(PID.TID 0000.0001) %MON surfExpan_salt_mean          =   2.4587537326364E-21
(PID.TID 0000.0001) // =======================================================
(PID.TID 0000.0001) // End MONITOR dynamic field statistics
(PID.TID 0000.0001) // =======================================================
(PID.TID 0000.0001) // =======================================================
(PID.TID 0000.0001) // Begin OBCS MONITOR field statistics
(PID.TID 0000.0001) // =======================================================
(PID.TID 0000.0001) %MON obc_S_vVel_max               =   4.2142667318376E-02
(PID.TID 0000.0001) %MON obc_S_vVel_min               =  -2.8357636289965E-04
(PID.TID 0000.0001) %MON obc_S_vVel_mean              =   1.2367823119745E-20
(PID.TID 0000.0001) %MON obc_S_vVel_sd                =   1.9006909835514E-03
(PID.TID 0000.0001) %MON obc_S_vVel_Int               =   5.9117155615240E-12
(PID.TID 0000.0001) // =======================================================
(PID.TID 0000.0001) // End OBCS MONITOR field statistics
(PID.TID 0000.0001) // =======================================================
 cg2d: Sum(rhs),rhsMax =   3.45679040947289E-12  6.49899946108906E-03
 cg2d: Sum(rhs),rhsMax =   3.16902060149005E-12  6.56200307547477E-03
 cg2d: Sum(rhs),rhsMax =   3.68061137123732E-12  6.61169182293423E-03
 cg2d: Sum(rhs),rhsMax =   2.88835622086481E-12  6.64787294390841E-03
 cg2d: Sum(rhs),rhsMax =   3.60955709766131E-12  6.67039384011206E-03
 cg2d: Sum(rhs),rhsMax =   3.30757643496327E-12  6.71794248746191E-03
 cg2d: Sum(rhs),rhsMax =   3.11572989630804E-12  6.75187355607194E-03
 cg2d: Sum(rhs),rhsMax =   3.16546788781125E-12  6.77184144601270E-03
 cg2d: Sum(rhs),rhsMax =   3.43547412740008E-12  6.77772512543972E-03
 cg2d: Sum(rhs),rhsMax =   3.08730818687764E-12  6.76944729845739E-03
 cg2d: Sum(rhs),rhsMax =   2.85282908407680E-12  6.74697542345222E-03
 cg2d: Sum(rhs),rhsMax =   4.02167188440217E-12  6.73103304442411E-03
 cg2d: Sum(rhs),rhsMax =   3.33244543071487E-12  6.71595421528627E-03
 cg2d: Sum(rhs),rhsMax =   2.70361510956718E-12  6.68678873294608E-03
 cg2d: Sum(rhs),rhsMax =   3.72324393538292E-12  6.64356604008738E-03
 cg2d: Sum(rhs),rhsMax =   3.28626015289046E-12  6.58636193517209E-03
 cg2d: Sum(rhs),rhsMax =   3.52429196937010E-12  6.51529900223231E-03
 cg2d: Sum(rhs),rhsMax =   3.75521835849213E-12  6.43054685325392E-03
 cg2d: Sum(rhs),rhsMax =   3.36441985382407E-12  6.33232217945330E-03
 cg2d: Sum(rhs),rhsMax =   3.61310981134011E-12  6.28103081439651E-03
(PID.TID 0000.0001)      cg2d_init_res =   8.29530134310074E-01
(PID.TID 0000.0001)      cg2d_iters(min,last) =      -1      32
(PID.TID 0000.0001)      cg2d_last_res =   9.87681044759238E-08
(PID.TID 0000.0001) // =======================================================
(PID.TID 0000.0001) // Begin MONITOR dynamic field statistics
(PID.TID 0000.0001) // =======================================================
(PID.TID 0000.0001) %MON time_tsnumber                =                  1100
(PID.TID 0000.0001) %MON time_secondsf                =   6.6000000000000E+04
(PID.TID 0000.0001) %MON dynstat_eta_max              =   4.7464664805856E-03
(PID.TID 0000.0001) %MON dynstat_eta_min              =  -5.6812878639907E-03
(PID.TID 0000.0001) %MON dynstat_eta_mean             =  -6.3310049599418E-19
(PID.TID 0000.0001) %MON dynstat_eta_sd               =   8.7847662799807E-04
(PID.TID 0000.0001) %MON dynstat_eta_del2             =   2.5580917550123E-07
(PID.TID 0000.0001) %MON dynstat_uvel_max             =   8.1209069548703E-02
(PID.TID 0000.0001) %MON dynstat_uvel_min             =  -1.8307104408431E-02
(PID.TID 0000.0001) %MON dynstat_uvel_mean            =  -1.1803266995790E-05
(PID.TID 0000.0001) %MON dynstat_uvel_sd              =   3.5645108522318E-03
(PID.TID 0000.0001) %MON dynstat_uvel_del2            =   3.7466368060832E-07
(PID.TID 0000.0001) %MON dynstat_vvel_max             =   5.4603934181290E-02
(PID.TID 0000.0001) %MON dynstat_vvel_min             =  -5.3535010760905E-02
(PID.TID 0000.0001) %MON dynstat_vvel_mean            =   1.0331773060921E-05
(PID.TID 0000.0001) %MON dynstat_vvel_sd              =   2.1156453322360E-03
(PID.TID 0000.0001) %MON dynstat_vvel_del2            =   4.2781862668983E-07
(PID.TID 0000.0001) %MON dynstat_wvel_max             =   1.7509600967149E-04
(PID.TID 0000.0001) %MON dynstat_wvel_min             =  -1.2771047951501E-04
(PID.TID 0000.0001) %MON dynstat_wvel_mean            =   9.4582441294805E-08
(PID.TID 0000.0001) %MON dynstat_wvel_sd              =   1.5148167808583E-06
(PID.TID 0000.0001) %MON dynstat_wvel_del2            =   4.4607830527260E-09
(PID.TID 0000.0001) %MON dynstat_theta_max            =   1.6579376231413E+01
(PID.TID 0000.0001) %MON dynstat_theta_min            =   4.1845648909559E+00
(PID.TID 0000.0001) %MON dynstat_theta_mean           =   8.3857342839156E+00
(PID.TID 0000.0001) %MON dynstat_theta_sd             =   3.8617462199119E+00
(PID.TID 0000.0001) %MON dynstat_theta_del2           =   5.1816179258020E-07
(PID.TID 0000.0001) %MON dynstat_salt_max             =   3.4476103098796E+01
(PID.TID 0000.0001) %MON dynstat_salt_min             =   3.3629810476298E+01
(PID.TID 0000.0001) %MON dynstat_salt_mean            =   3.4127681152213E+01
(PID.TID 0000.0001) %MON dynstat_salt_sd              =   2.8356517846771E-01
(PID.TID 0000.0001) %MON dynstat_salt_del2            =   1.9785432882916E-08
(PID.TID 0000.0001) %MON trAdv_CFL_u_max              =   2.4939084341325E-03
(PID.TID 0000.0001) %MON trAdv_CFL_v_max              =   2.1700804788621E-03
(PID.TID 0000.0001) %MON trAdv_CFL_w_max              =   3.3206214460090E-03
(PID.TID 0000.0001) %MON advcfl_uvel_max              =   2.4465475863236E-03
(PID.TID 0000.0001) %MON advcfl_vvel_max              =   1.3996522699465E-03
(PID.TID 0000.0001) %MON advcfl_wvel_max              =   3.5196878602406E-03
(PID.TID 0000.0001) %MON advcfl_W_hf_max              =   3.7396683515056E-03
(PID.TID 0000.0001) %MON pe_b_mean                    =   5.7802675460504E-09
(PID.TID 0000.0001) %MON ke_max                       =   4.0511912400016E-03
(PID.TID 0000.0001) %MON ke_mean                      =   8.5861520819023E-06
(PID.TID 0000.0001) %MON ke_vol                       =   1.0416098804501E+14
(PID.TID 0000.0001) %MON vort_r_min                   =  -3.3489094503087E-05
(PID.TID 0000.0001) %MON vort_r_max                   =   4.2201033980148E-05
(PID.TID 0000.0001) %MON vort_a_mean                  =   6.9456055905738E-04
(PID.TID 0000.0001) %MON vort_a_sd                    =   7.9596885489290E-07
(PID.TID 0000.0001) %MON vort_p_mean                  =   7.0575608364114E-04
(PID.TID 0000.0001) %MON vort_p_sd                    =   1.5174584250351E-04
(PID.TID 0000.0001) %MON surfExpan_theta_mean         =   1.3814312954746E-12
(PID.TID 0000.0001) %MON surfExpan_salt_mean          =   7.4620316769545E-22
(PID.TID 0000.0001) // =======================================================
(PID.TID 0000.0001) // End MONITOR dynamic field statistics
(PID.TID 0000.0001) // =======================================================
(PID.TID 0000.0001) // =======================================================
(PID.TID 0000.0001) // Begin OBCS MONITOR field statistics
(PID.TID 0000.0001) // =======================================================
(PID.TID 0000.0001) %MON obc_S_vVel_max               =   1.3089509228190E-04
(PID.TID 0000.0001) %MON obc_S_vVel_min               =  -2.3225826539190E-02
(PID.TID 0000.0001) %MON obc_S_vVel_mean              =  -8.8001818352034E-21
(PID.TID 0000.0001) %MON obc_S_vVel_sd                =   1.0493320876333E-03
(PID.TID 0000.0001) %MON obc_S_vVel_Int               =  -4.2064129956998E-12
(PID.TID 0000.0001) // =======================================================
(PID.TID 0000.0001) // End OBCS MONITOR field statistics
(PID.TID 0000.0001) // =======================================================
 cg2d: Sum(rhs),rhsMax =   3.53139739672770E-12  6.23531867848517E-03
 cg2d: Sum(rhs),rhsMax =   3.13704617838084E-12  6.19858035875859E-03
 cg2d: Sum(rhs),rhsMax =   3.50297568729729E-12  6.15339431290984E-03
 cg2d: Sum(rhs),rhsMax =   3.65574237548572E-12  6.09595604884363E-03
 cg2d: Sum(rhs),rhsMax =   3.09796632791404E-12  6.02639886116673E-03
 cg2d: Sum(rhs),rhsMax =   3.27915472553286E-12  5.94489667021143E-03
 cg2d: Sum(rhs),rhsMax =   3.95061761082616E-12  5.85166411617910E-03
 cg2d: Sum(rhs),rhsMax =   3.76232378584973E-12  5.74695644191322E-03
 cg2d: Sum(rhs),rhsMax =   3.60600438398251E-12  5.63106915997270E-03
 cg2d: Sum(rhs),rhsMax =   3.82627263206814E-12  5.50433750145744E-03
 cg2d: Sum(rhs),rhsMax =   4.07496258958417E-12  5.36713564589555E-03
 cg2d: Sum(rhs),rhsMax =   4.30944169238501E-12  5.23655097529108E-03
 cg2d: Sum(rhs),rhsMax =   3.95772303818376E-12  5.19706257002873E-03
 cg2d: Sum(rhs),rhsMax =   4.44089209850063E-12  5.18995590803377E-03
 cg2d: Sum(rhs),rhsMax =   4.02522459808097E-12  5.16787142954668E-03
 cg2d: Sum(rhs),rhsMax =   4.60076421404665E-12  5.13079306914676E-03
 cg2d: Sum(rhs),rhsMax =   4.24194013248780E-12  5.07875609274582E-03
 cg2d: Sum(rhs),rhsMax =   4.14601686316018E-12  5.03481807079269E-03
 cg2d: Sum(rhs),rhsMax =   4.76063632959267E-12  5.01946620553866E-03
 cg2d: Sum(rhs),rhsMax =   4.66116034658626E-12  4.99067804416750E-03
(PID.TID 0000.0001)      cg2d_init_res =   1.17293075274725E+00
(PID.TID 0000.0001)      cg2d_iters(min,last) =      -1      33
(PID.TID 0000.0001)      cg2d_last_res =   7.55617190274885E-08
(PID.TID 0000.0001) // =======================================================
(PID.TID 0000.0001) // Begin MONITOR dynamic field statistics
(PID.TID 0000.0001) // =======================================================
(PID.TID 0000.0001) %MON time_tsnumber                =                  1120
(PID.TID 0000.0001) %MON time_secondsf                =   6.7200000000000E+04
(PID.TID 0000.0001) %MON dynstat_eta_max              =   3.6125599856365E-03
(PID.TID 0000.0001) %MON dynstat_eta_min              =  -4.5107803977558E-03
(PID.TID 0000.0001) %MON dynstat_eta_mean             =  -6.0967943718284E-19
(PID.TID 0000.0001) %MON dynstat_eta_sd               =   7.3560067015762E-04
(PID.TID 0000.0001) %MON dynstat_eta_del2             =   1.8360488839617E-07
(PID.TID 0000.0001) %MON dynstat_uvel_max             =   4.2891550056216E-02
(PID.TID 0000.0001) %MON dynstat_uvel_min             =  -1.7275381163104E-02
(PID.TID 0000.0001) %MON dynstat_uvel_mean            =  -2.0527293941994E-07
(PID.TID 0000.0001) %MON dynstat_uvel_sd              =   9.3027079909280E-04
(PID.TID 0000.0001) %MON dynstat_uvel_del2            =   3.7911909345953E-07
(PID.TID 0000.0001) %MON dynstat_vvel_max             =   3.5464222712486E-02
(PID.TID 0000.0001) %MON dynstat_vvel_min             =  -8.7892381448967E-02
(PID.TID 0000.0001) %MON dynstat_vvel_mean            =   2.3948797490684E-06
(PID.TID 0000.0001) %MON dynstat_vvel_sd              =   4.0343677545406E-03
(PID.TID 0000.0001) %MON dynstat_vvel_del2            =   4.2532161272285E-07
(PID.TID 0000.0001) %MON dynstat_wvel_max             =   1.9523033167255E-04
(PID.TID 0000.0001) %MON dynstat_wvel_min             =  -1.1081285580177E-04
(PID.TID 0000.0001) %MON dynstat_wvel_mean            =   3.2292698260961E-07
(PID.TID 0000.0001) %MON dynstat_wvel_sd              =   1.6348938334919E-06
(PID.TID 0000.0001) %MON dynstat_wvel_del2            =   4.3619357585484E-09
(PID.TID 0000.0001) %MON dynstat_theta_max            =   1.6579354733902E+01
(PID.TID 0000.0001) %MON dynstat_theta_min            =   4.1845646388864E+00
(PID.TID 0000.0001) %MON dynstat_theta_mean           =   8.3857293915707E+00
(PID.TID 0000.0001) %MON dynstat_theta_sd             =   3.8617405830078E+00
(PID.TID 0000.0001) %MON dynstat_theta_del2           =   5.0593857750282E-07
(PID.TID 0000.0001) %MON dynstat_salt_max             =   3.4476103124497E+01
(PID.TID 0000.0001) %MON dynstat_salt_min             =   3.3629819849679E+01
(PID.TID 0000.0001) %MON dynstat_salt_mean            =   3.4127681444092E+01
(PID.TID 0000.0001) %MON dynstat_salt_sd              =   2.8356493028153E-01
(PID.TID 0000.0001) %MON dynstat_salt_del2            =   1.9556363967814E-08
(PID.TID 0000.0001) %MON trAdv_CFL_u_max              =   1.3218663335125E-03
(PID.TID 0000.0001) %MON trAdv_CFL_v_max              =   2.2405788114659E-03
(PID.TID 0000.0001) %MON trAdv_CFL_w_max              =   3.1480858346646E-03
(PID.TID 0000.0001) %MON advcfl_uvel_max              =   1.2921411911596E-03
(PID.TID 0000.0001) %MON advcfl_vvel_max              =   2.2528805907972E-03
(PID.TID 0000.0001) %MON advcfl_wvel_max              =   3.3095258777805E-03
(PID.TID 0000.0001) %MON advcfl_W_hf_max              =   3.5163712451418E-03
(PID.TID 0000.0001) %MON pe_b_mean                    =   4.0529547042404E-09
(PID.TID 0000.0001) %MON ke_max                       =   3.9636166803399E-03
(PID.TID 0000.0001) %MON ke_mean                      =   8.5413507073657E-06
(PID.TID 0000.0001) %MON ke_vol                       =   1.0416098804501E+14
(PID.TID 0000.0001) %MON vort_r_min                   =  -2.5536893937541E-05
(PID.TID 0000.0001) %MON vort_r_max                   =   3.0535981648918E-05
(PID.TID 0000.0001) %MON vort_a_mean                  =   6.9456055905738E-04
(PID.TID 0000.0001) %MON vort_a_sd                    =   7.8348570411831E-07
(PID.TID 0000.0001) %MON vort_p_mean                  =   7.0575608364114E-04
(PID.TID 0000.0001) %MON vort_p_sd                    =   1.5174615215058E-04
(PID.TID 0000.0001) %MON surfExpan_theta_mean         =   5.2985497189988E-12
(PID.TID 0000.0001) %MON surfExpan_salt_mean          =  -3.7796191099364E-21
(PID.TID 0000.0001) // =======================================================
(PID.TID 0000.0001) // End MONITOR dynamic field statistics
(PID.TID 0000.0001) // =======================================================
(PID.TID 0000.0001) // =======================================================
(PID.TID 0000.0001) // Begin OBCS MONITOR field statistics
(PID.TID 0000.0001) // =======================================================
(PID.TID 0000.0001) %MON obc_S_vVel_max               =   3.8201631644599E-04
(PID.TID 0000.0001) %MON obc_S_vVel_min               =  -7.3064148489953E-02
(PID.TID 0000.0001) %MON obc_S_vVel_mean              =  -8.8715346608942E-20
(PID.TID 0000.0001) %MON obc_S_vVel_sd                =   3.3024952360843E-03
(PID.TID 0000.0001) %MON obc_S_vVel_Int               =  -4.2405190470163E-11
(PID.TID 0000.0001) // =======================================================
(PID.TID 0000.0001) // End OBCS MONITOR field statistics
(PID.TID 0000.0001) // =======================================================
 cg2d: Sum(rhs),rhsMax =   4.67537120130146E-12  4.94845759097297E-03
 cg2d: Sum(rhs),rhsMax =   4.36628511124582E-12  4.89285359766129E-03
 cg2d: Sum(rhs),rhsMax =   4.54392079518584E-12  4.82395934979386E-03
 cg2d: Sum(rhs),rhsMax =   4.45155023953703E-12  4.78695253024030E-03
 cg2d: Sum(rhs),rhsMax =   4.49063009000383E-12  4.76079427674489E-03
 cg2d: Sum(rhs),rhsMax =   4.67181848762266E-12  4.72294127410745E-03
 cg2d: Sum(rhs),rhsMax =   4.38049596596102E-12  4.67342602805440E-03
 cg2d: Sum(rhs),rhsMax =   4.71445105176826E-12  4.61231894793141E-03
 cg2d: Sum(rhs),rhsMax =   4.93116658617510E-12  4.53972791949083E-03
 cg2d: Sum(rhs),rhsMax =   4.82458517581108E-12  4.45579769799188E-03
 cg2d: Sum(rhs),rhsMax =   5.13011855218792E-12  4.37739898437608E-03
 cg2d: Sum(rhs),rhsMax =   5.16919840265473E-12  4.32224580034687E-03
 cg2d: Sum(rhs),rhsMax =   4.79616346638068E-12  4.25725837932662E-03
 cg2d: Sum(rhs),rhsMax =   5.28643795405515E-12  4.18255620492628E-03
 cg2d: Sum(rhs),rhsMax =   4.97379915032070E-12  4.09828685873170E-03
 cg2d: Sum(rhs),rhsMax =   5.23314724887314E-12  4.00462517158192E-03
 cg2d: Sum(rhs),rhsMax =   5.00577357342991E-12  3.90426682937783E-03
 cg2d: Sum(rhs),rhsMax =   5.76250158701441E-12  3.84524221759076E-03
 cg2d: Sum(rhs),rhsMax =   5.50315348846198E-12  3.77825742313167E-03
 cg2d: Sum(rhs),rhsMax =   6.08046946126706E-12  3.70342620203078E-03
(PID.TID 0000.0001)      cg2d_init_res =   1.62574285905525E+00
(PID.TID 0000.0001)      cg2d_iters(min,last) =      -1      34
(PID.TID 0000.0001)      cg2d_last_res =   6.53426927053342E-08
(PID.TID 0000.0001) // =======================================================
(PID.TID 0000.0001) // Begin MONITOR dynamic field statistics
(PID.TID 0000.0001) // =======================================================
(PID.TID 0000.0001) %MON time_tsnumber                =                  1140
(PID.TID 0000.0001) %MON time_secondsf                =   6.8400000000000E+04
(PID.TID 0000.0001) %MON dynstat_eta_max              =   2.3949562628342E-03
(PID.TID 0000.0001) %MON dynstat_eta_min              =  -3.3414025602059E-03
(PID.TID 0000.0001) %MON dynstat_eta_mean             =  -5.5460335357178E-19
(PID.TID 0000.0001) %MON dynstat_eta_sd               =   6.5951349170206E-04
(PID.TID 0000.0001) %MON dynstat_eta_del2             =   1.4470911750861E-07
(PID.TID 0000.0001) %MON dynstat_uvel_max             =   3.1406998660389E-02
(PID.TID 0000.0001) %MON dynstat_uvel_min             =  -6.0155521485607E-02
(PID.TID 0000.0001) %MON dynstat_uvel_mean            =  -4.6854724458814E-06
(PID.TID 0000.0001) %MON dynstat_uvel_sd              =   2.4358081319915E-03
(PID.TID 0000.0001) %MON dynstat_uvel_del2            =   3.7555745637358E-07
(PID.TID 0000.0001) %MON dynstat_vvel_max             =   2.0756785343806E-02
(PID.TID 0000.0001) %MON dynstat_vvel_min             =  -7.6578651461701E-02
(PID.TID 0000.0001) %MON dynstat_vvel_mean            =  -1.5006521229883E-05
(PID.TID 0000.0001) %MON dynstat_vvel_sd              =   3.3349215734065E-03
(PID.TID 0000.0001) %MON dynstat_vvel_del2            =   4.0977848528307E-07
(PID.TID 0000.0001) %MON dynstat_wvel_max             =   2.0428332017131E-04
(PID.TID 0000.0001) %MON dynstat_wvel_min             =  -1.0616606177178E-04
(PID.TID 0000.0001) %MON dynstat_wvel_mean            =   3.3983258174287E-07
(PID.TID 0000.0001) %MON dynstat_wvel_sd              =   1.5166326589477E-06
(PID.TID 0000.0001) %MON dynstat_wvel_del2            =   4.2420720561892E-09
(PID.TID 0000.0001) %MON dynstat_theta_max            =   1.6579332839312E+01
(PID.TID 0000.0001) %MON dynstat_theta_min            =   4.1845603696877E+00
(PID.TID 0000.0001) %MON dynstat_theta_mean           =   8.3857218725794E+00
(PID.TID 0000.0001) %MON dynstat_theta_sd             =   3.8617329039997E+00
(PID.TID 0000.0001) %MON dynstat_theta_del2           =   4.9332046265542E-07
(PID.TID 0000.0001) %MON dynstat_salt_max             =   3.4476103559636E+01
(PID.TID 0000.0001) %MON dynstat_salt_min             =   3.3629822489298E+01
(PID.TID 0000.0001) %MON dynstat_salt_mean            =   3.4127681898138E+01
(PID.TID 0000.0001) %MON dynstat_salt_sd              =   2.8356459735187E-01
(PID.TID 0000.0001) %MON dynstat_salt_del2            =   1.9305708932155E-08
(PID.TID 0000.0001) %MON trAdv_CFL_u_max              =   1.7334330450719E-03
(PID.TID 0000.0001) %MON trAdv_CFL_v_max              =   2.0022376517821E-03
(PID.TID 0000.0001) %MON trAdv_CFL_w_max              =   2.4661983562659E-03
(PID.TID 0000.0001) %MON advcfl_uvel_max              =   1.8122760009449E-03
(PID.TID 0000.0001) %MON advcfl_vvel_max              =   1.9629260227286E-03
(PID.TID 0000.0001) %MON advcfl_wvel_max              =   2.5628689884925E-03
(PID.TID 0000.0001) %MON advcfl_W_hf_max              =   2.7230483002733E-03
(PID.TID 0000.0001) %MON pe_b_mean                    =   3.2578785207363E-09
(PID.TID 0000.0001) %MON ke_max                       =   4.0193658996429E-03
(PID.TID 0000.0001) %MON ke_mean                      =   8.4958189955803E-06
(PID.TID 0000.0001) %MON ke_vol                       =   1.0416098804501E+14
(PID.TID 0000.0001) %MON vort_r_min                   =  -2.8872104642597E-05
(PID.TID 0000.0001) %MON vort_r_max                   =   1.5446531619615E-05
(PID.TID 0000.0001) %MON vort_a_mean                  =   6.9456055905738E-04
(PID.TID 0000.0001) %MON vort_a_sd                    =   7.8179741589378E-07
(PID.TID 0000.0001) %MON vort_p_mean                  =   7.0575608364114E-04
(PID.TID 0000.0001) %MON vort_p_sd                    =   1.5174803853731E-04
(PID.TID 0000.0001) %MON surfExpan_theta_mean         =   4.5313763534594E-12
(PID.TID 0000.0001) %MON surfExpan_salt_mean          =  -4.9175074652727E-22
(PID.TID 0000.0001) // =======================================================
(PID.TID 0000.0001) // End MONITOR dynamic field statistics
(PID.TID 0000.0001) // =======================================================
(PID.TID 0000.0001) // =======================================================
(PID.TID 0000.0001) // Begin OBCS MONITOR field statistics
(PID.TID 0000.0001) // =======================================================
(PID.TID 0000.0001) %MON obc_S_vVel_max               =   4.3411597124410E-04
(PID.TID 0000.0001) %MON obc_S_vVel_min               =  -7.5003007831318E-02
(PID.TID 0000.0001) %MON obc_S_vVel_mean              =  -2.8660051652487E-20
(PID.TID 0000.0001) %MON obc_S_vVel_sd                =   3.3903187271300E-03
(PID.TID 0000.0001) %MON obc_S_vVel_Int               =  -1.3699263945455E-11
(PID.TID 0000.0001) // =======================================================
(PID.TID 0000.0001) // End OBCS MONITOR field statistics
(PID.TID 0000.0001) // =======================================================
 cg2d: Sum(rhs),rhsMax =   5.59730040095019E-12  3.70360901726100E-03
 cg2d: Sum(rhs),rhsMax =   5.60795854198659E-12  3.76999192369859E-03
 cg2d: Sum(rhs),rhsMax =   5.51381162949838E-12  3.83962599196039E-03
 cg2d: Sum(rhs),rhsMax =   6.00941518769105E-12  3.90002559435520E-03
 cg2d: Sum(rhs),rhsMax =   4.82636153265048E-12  3.95111906601617E-03
 cg2d: Sum(rhs),rhsMax =   5.10791409169542E-12  3.99286358746627E-03
 cg2d: Sum(rhs),rhsMax =   4.82547335423078E-12  4.03988174489619E-03
 cg2d: Sum(rhs),rhsMax =   5.21538368047914E-12  4.08552283749058E-03
 cg2d: Sum(rhs),rhsMax =   5.41078293281316E-12  4.12070258543152E-03
 cg2d: Sum(rhs),rhsMax =   4.81126249951558E-12  4.14671055519357E-03
 cg2d: Sum(rhs),rhsMax =   4.35829150546851E-12  4.16356586971585E-03
 cg2d: Sum(rhs),rhsMax =   5.85576032108293E-12  4.17693895073901E-03
 cg2d: Sum(rhs),rhsMax =   4.78994621744278E-12  4.20832041002790E-03
 cg2d: Sum(rhs),rhsMax =   5.01643171446631E-12  4.32967310259085E-03
 cg2d: Sum(rhs),rhsMax =   4.31232827224903E-12  4.45909566358798E-03
 cg2d: Sum(rhs),rhsMax =   4.62607729900810E-12  4.58083571251884E-03
 cg2d: Sum(rhs),rhsMax =   4.78062034403592E-12  4.69180354851151E-03
 cg2d: Sum(rhs),rhsMax =   4.23228119217356E-12  4.79185881605240E-03
 cg2d: Sum(rhs),rhsMax =   4.21757073709728E-12  4.88089604192796E-03
 cg2d: Sum(rhs),rhsMax =   3.60544927247020E-12  4.95884460590082E-03
(PID.TID 0000.0001)      cg2d_init_res =   8.80424231474971E-01
(PID.TID 0000.0001)      cg2d_iters(min,last) =      -1      33
(PID.TID 0000.0001)      cg2d_last_res =   6.25663465651727E-08
(PID.TID 0000.0001) // =======================================================
(PID.TID 0000.0001) // Begin MONITOR dynamic field statistics
(PID.TID 0000.0001) // =======================================================
(PID.TID 0000.0001) %MON time_tsnumber                =                  1160
(PID.TID 0000.0001) %MON time_secondsf                =   6.9600000000000E+04
(PID.TID 0000.0001) %MON dynstat_eta_max              =   4.4941622792797E-03
(PID.TID 0000.0001) %MON dynstat_eta_min              =  -3.7240273786123E-03
(PID.TID 0000.0001) %MON dynstat_eta_mean             =  -6.2355138266045E-19
(PID.TID 0000.0001) %MON dynstat_eta_sd               =   7.7709460938510E-04
(PID.TID 0000.0001) %MON dynstat_eta_del2             =   1.5083689573802E-07
(PID.TID 0000.0001) %MON dynstat_uvel_max             =   2.5884808694125E-02
(PID.TID 0000.0001) %MON dynstat_uvel_min             =  -8.9715939404932E-02
(PID.TID 0000.0001) %MON dynstat_uvel_mean            =  -2.0635620842647E-05
(PID.TID 0000.0001) %MON dynstat_uvel_sd              =   4.0681040016925E-03
(PID.TID 0000.0001) %MON dynstat_uvel_del2            =   3.7549174735309E-07
(PID.TID 0000.0001) %MON dynstat_vvel_max             =   1.2960848900757E-02
(PID.TID 0000.0001) %MON dynstat_vvel_min             =  -3.7305552562570E-02
(PID.TID 0000.0001) %MON dynstat_vvel_mean            =  -1.3902533767775E-05
(PID.TID 0000.0001) %MON dynstat_vvel_sd              =   6.0109152598689E-04
(PID.TID 0000.0001) %MON dynstat_vvel_del2            =   3.7937025418367E-07
(PID.TID 0000.0001) %MON dynstat_wvel_max             =   2.0337750111339E-04
(PID.TID 0000.0001) %MON dynstat_wvel_min             =  -9.5399010634311E-05
(PID.TID 0000.0001) %MON dynstat_wvel_mean            =   1.3377734178932E-07
(PID.TID 0000.0001) %MON dynstat_wvel_sd              =   1.3521405545240E-06
(PID.TID 0000.0001) %MON dynstat_wvel_del2            =   4.1417182004857E-09
(PID.TID 0000.0001) %MON dynstat_theta_max            =   1.6579315300100E+01
(PID.TID 0000.0001) %MON dynstat_theta_min            =   4.1845567327431E+00
(PID.TID 0000.0001) %MON dynstat_theta_mean           =   8.3857166607756E+00
(PID.TID 0000.0001) %MON dynstat_theta_sd             =   3.8617272434654E+00
(PID.TID 0000.0001) %MON dynstat_theta_del2           =   4.8062595151789E-07
(PID.TID 0000.0001) %MON dynstat_salt_max             =   3.4476103930332E+01
(PID.TID 0000.0001) %MON dynstat_salt_min             =   3.3629820126727E+01
(PID.TID 0000.0001) %MON dynstat_salt_mean            =   3.4127682216238E+01
(PID.TID 0000.0001) %MON dynstat_salt_sd              =   2.8356435076371E-01
(PID.TID 0000.0001) %MON dynstat_salt_del2            =   1.8985072390474E-08
(PID.TID 0000.0001) %MON trAdv_CFL_u_max              =   2.6909807926963E-03
(PID.TID 0000.0001) %MON trAdv_CFL_v_max              =   9.8616122697071E-04
(PID.TID 0000.0001) %MON trAdv_CFL_w_max              =   2.0369741236703E-03
(PID.TID 0000.0001) %MON advcfl_uvel_max              =   2.7028280553116E-03
(PID.TID 0000.0001) %MON advcfl_vvel_max              =   9.5622571503512E-04
(PID.TID 0000.0001) %MON advcfl_wvel_max              =   1.9187516791984E-03
(PID.TID 0000.0001) %MON advcfl_W_hf_max              =   2.0386736591483E-03
(PID.TID 0000.0001) %MON pe_b_mean                    =   4.5230908426950E-09
(PID.TID 0000.0001) %MON ke_max                       =   4.0716459431078E-03
(PID.TID 0000.0001) %MON ke_mean                      =   8.4490024308970E-06
(PID.TID 0000.0001) %MON ke_vol                       =   1.0416098804501E+14
(PID.TID 0000.0001) %MON vort_r_min                   =  -2.8652733245487E-05
(PID.TID 0000.0001) %MON vort_r_max                   =   3.2099676571324E-05
(PID.TID 0000.0001) %MON vort_a_mean                  =   6.9456055905738E-04
(PID.TID 0000.0001) %MON vort_a_sd                    =   7.9391673257290E-07
(PID.TID 0000.0001) %MON vort_p_mean                  =   7.0575608364114E-04
(PID.TID 0000.0001) %MON vort_p_sd                    =   1.5175002781749E-04
(PID.TID 0000.0001) %MON surfExpan_theta_mean         =   1.3026383433040E-12
(PID.TID 0000.0001) %MON surfExpan_salt_mean          =  -1.2322358822864E-21
(PID.TID 0000.0001) // =======================================================
(PID.TID 0000.0001) // End MONITOR dynamic field statistics
(PID.TID 0000.0001) // =======================================================
(PID.TID 0000.0001) // =======================================================
(PID.TID 0000.0001) // Begin OBCS MONITOR field statistics
(PID.TID 0000.0001) // =======================================================
(PID.TID 0000.0001) %MON obc_S_vVel_max               =   2.1616628712054E-04
(PID.TID 0000.0001) %MON obc_S_vVel_min               =  -2.7924433004242E-02
(PID.TID 0000.0001) %MON obc_S_vVel_mean              =  -2.9730344037849E-20
(PID.TID 0000.0001) %MON obc_S_vVel_sd                =   1.2616314685986E-03
(PID.TID 0000.0001) %MON obc_S_vVel_Int               =  -1.4210854715202E-11
(PID.TID 0000.0001) // =======================================================
(PID.TID 0000.0001) // End OBCS MONITOR field statistics
(PID.TID 0000.0001) // =======================================================
 cg2d: Sum(rhs),rhsMax =   4.97113461506160E-12  5.02566860648267E-03
 cg2d: Sum(rhs),rhsMax =   4.06452649315270E-12  5.08136661592201E-03
 cg2d: Sum(rhs),rhsMax =   3.53239659744986E-12  5.12597131908420E-03
 cg2d: Sum(rhs),rhsMax =   3.64352992221484E-12  5.15954903097780E-03
 cg2d: Sum(rhs),rhsMax =   4.60165239246635E-12  5.24539069718790E-03
 cg2d: Sum(rhs),rhsMax =   4.16178203010986E-12  5.33584539479058E-03
 cg2d: Sum(rhs),rhsMax =   3.40327765968595E-12  5.42797579425482E-03
 cg2d: Sum(rhs),rhsMax =   3.29980487379089E-12  5.51758196452901E-03
 cg2d: Sum(rhs),rhsMax =   3.52029516648145E-12  5.59524555066857E-03
 cg2d: Sum(rhs),rhsMax =   3.25783844346006E-12  5.66099629658818E-03
 cg2d: Sum(rhs),rhsMax =   3.43258754753606E-12  5.71490267739273E-03
 cg2d: Sum(rhs),rhsMax =   3.39861472298253E-12  5.75707099639894E-03
 cg2d: Sum(rhs),rhsMax =   3.99080768431759E-12  5.78764432377164E-03
 cg2d: Sum(rhs),rhsMax =   3.70459218856922E-12  5.80680128039708E-03
 cg2d: Sum(rhs),rhsMax =   3.67905705900284E-12  5.81475467201358E-03
 cg2d: Sum(rhs),rhsMax =   3.18367554541510E-12  5.81174998007038E-03
 cg2d: Sum(rhs),rhsMax =   3.56958906877480E-12  5.79806371725567E-03
 cg2d: Sum(rhs),rhsMax =   3.94695387484489E-12  5.77400165708852E-03
 cg2d: Sum(rhs),rhsMax =   3.15625303670686E-12  5.73989694837122E-03
 cg2d: Sum(rhs),rhsMax =   3.54627438525768E-12  5.69610812661797E-03
(PID.TID 0000.0001)      cg2d_init_res =   6.41556769968752E-01
(PID.TID 0000.0001)      cg2d_iters(min,last) =      -1      32
(PID.TID 0000.0001)      cg2d_last_res =   7.23936855968413E-08
(PID.TID 0000.0001) // =======================================================
(PID.TID 0000.0001) // Begin MONITOR dynamic field statistics
(PID.TID 0000.0001) // =======================================================
(PID.TID 0000.0001) %MON time_tsnumber                =                  1180
(PID.TID 0000.0001) %MON time_secondsf                =   7.0800000000000E+04
(PID.TID 0000.0001) %MON dynstat_eta_max              =   5.1552209714834E-03
(PID.TID 0000.0001) %MON dynstat_eta_min              =  -4.1348254281607E-03
(PID.TID 0000.0001) %MON dynstat_eta_mean             =  -5.7102554129302E-19
(PID.TID 0000.0001) %MON dynstat_eta_sd               =   7.5680852126390E-04
(PID.TID 0000.0001) %MON dynstat_eta_del2             =   1.5235506635443E-07
(PID.TID 0000.0001) %MON dynstat_uvel_max             =   2.0110398803178E-02
(PID.TID 0000.0001) %MON dynstat_uvel_min             =  -7.1836641837589E-02
(PID.TID 0000.0001) %MON dynstat_uvel_mean            =  -2.5976542219594E-05
(PID.TID 0000.0001) %MON dynstat_uvel_sd              =   3.0604645245136E-03
(PID.TID 0000.0001) %MON dynstat_uvel_del2            =   3.6855829352007E-07
(PID.TID 0000.0001) %MON dynstat_vvel_max             =   6.5921005354738E-02
(PID.TID 0000.0001) %MON dynstat_vvel_min             =  -2.6123362668027E-02
(PID.TID 0000.0001) %MON dynstat_vvel_mean            =   1.0089598268606E-05
(PID.TID 0000.0001) %MON dynstat_vvel_sd              =   2.7317082006287E-03
(PID.TID 0000.0001) %MON dynstat_vvel_del2            =   3.5480601701974E-07
(PID.TID 0000.0001) %MON dynstat_wvel_max             =   1.9334435800366E-04
(PID.TID 0000.0001) %MON dynstat_wvel_min             =  -8.3255639600033E-05
(PID.TID 0000.0001) %MON dynstat_wvel_mean            =  -1.5767930616611E-07
(PID.TID 0000.0001) %MON dynstat_wvel_sd              =   1.4236806602987E-06
(PID.TID 0000.0001) %MON dynstat_wvel_del2            =   4.0279762704440E-09
(PID.TID 0000.0001) %MON dynstat_theta_max            =   1.6579298074490E+01
(PID.TID 0000.0001) %MON dynstat_theta_min            =   4.1845540017811E+00
(PID.TID 0000.0001) %MON dynstat_theta_mean           =   8.3857171604829E+00
(PID.TID 0000.0001) %MON dynstat_theta_sd             =   3.8617263401185E+00
(PID.TID 0000.0001) %MON dynstat_theta_del2           =   4.6949023939332E-07
(PID.TID 0000.0001) %MON dynstat_salt_max             =   3.4476104208686E+01
(PID.TID 0000.0001) %MON dynstat_salt_min             =   3.3629816411656E+01
(PID.TID 0000.0001) %MON dynstat_salt_mean            =   3.4127682190934E+01
(PID.TID 0000.0001) %MON dynstat_salt_sd              =   2.8356430482251E-01
(PID.TID 0000.0001) %MON dynstat_salt_del2            =   1.8612884797034E-08
(PID.TID 0000.0001) %MON trAdv_CFL_u_max              =   2.2251892284781E-03
(PID.TID 0000.0001) %MON trAdv_CFL_v_max              =   1.6323687103865E-03
(PID.TID 0000.0001) %MON trAdv_CFL_w_max              =   1.9750230296857E-03
(PID.TID 0000.0001) %MON advcfl_uvel_max              =   2.1766598360444E-03
(PID.TID 0000.0001) %MON advcfl_vvel_max              =   1.6897045118269E-03
(PID.TID 0000.0001) %MON advcfl_wvel_max              =   1.8495769250013E-03
(PID.TID 0000.0001) %MON advcfl_W_hf_max              =   1.9651754828138E-03
(PID.TID 0000.0001) %MON pe_b_mean                    =   4.2900222471341E-09
(PID.TID 0000.0001) %MON ke_max                       =   4.0000565924299E-03
(PID.TID 0000.0001) %MON ke_mean                      =   8.4057577574340E-06
(PID.TID 0000.0001) %MON ke_vol                       =   1.0416098804501E+14
(PID.TID 0000.0001) %MON vort_r_min                   =  -2.0949871205132E-05
(PID.TID 0000.0001) %MON vort_r_max                   =   3.0867255795221E-05
(PID.TID 0000.0001) %MON vort_a_mean                  =   6.9456055905738E-04
(PID.TID 0000.0001) %MON vort_a_sd                    =   7.9253198938823E-07
(PID.TID 0000.0001) %MON vort_p_mean                  =   7.0575608364114E-04
(PID.TID 0000.0001) %MON vort_p_sd                    =   1.5175074129591E-04
(PID.TID 0000.0001) %MON surfExpan_theta_mean         =   6.4499913464567E-13
(PID.TID 0000.0001) %MON surfExpan_salt_mean          =  -1.8197636637477E-21
(PID.TID 0000.0001) // =======================================================
(PID.TID 0000.0001) // End MONITOR dynamic field statistics
(PID.TID 0000.0001) // =======================================================
(PID.TID 0000.0001) // =======================================================
(PID.TID 0000.0001) // Begin OBCS MONITOR field statistics
(PID.TID 0000.0001) // =======================================================
(PID.TID 0000.0001) %MON obc_S_vVel_max               =   3.7184899030080E-02
(PID.TID 0000.0001) %MON obc_S_vVel_min               =  -1.8946163928178E-04
(PID.TID 0000.0001) %MON obc_S_vVel_mean              =  -2.2595061468765E-20
(PID.TID 0000.0001) %MON obc_S_vVel_sd                =   1.6817673325287E-03
(PID.TID 0000.0001) %MON obc_S_vVel_Int               =  -1.0800249583554E-11
(PID.TID 0000.0001) // =======================================================
(PID.TID 0000.0001) // End OBCS MONITOR field statistics
(PID.TID 0000.0001) // =======================================================
 cg2d: Sum(rhs),rhsMax =   3.87390119982456E-12  5.64301703578220E-03
 cg2d: Sum(rhs),rhsMax =   3.34182681527295E-12  5.63417372915765E-03
 cg2d: Sum(rhs),rhsMax =   3.45423689651625E-12  5.63085327593749E-03
 cg2d: Sum(rhs),rhsMax =   3.91742194238986E-12  5.61835748388953E-03
 cg2d: Sum(rhs),rhsMax =   3.35845240506671E-12  5.59698084584511E-03
 cg2d: Sum(rhs),rhsMax =   3.68238772807672E-12  5.56703810915389E-03
 cg2d: Sum(rhs),rhsMax =   4.07995859319499E-12  5.52886227149510E-03
 cg2d: Sum(rhs),rhsMax =   3.33472138791535E-12  5.48280254874646E-03
 cg2d: Sum(rhs),rhsMax =   3.71014330369235E-12  5.42922233422898E-03
 cg2d: Sum(rhs),rhsMax =   3.70015129647072E-12  5.36849716800332E-03
 cg2d: Sum(rhs),rhsMax =   4.13358236528438E-12  5.33751894796011E-03
 cg2d: Sum(rhs),rhsMax =   3.81872311550069E-12  5.33202177416973E-03
 cg2d: Sum(rhs),rhsMax =   3.61621843580906E-12  5.31926841996213E-03
 cg2d: Sum(rhs),rhsMax =   3.66617847191719E-12  5.29950963838779E-03
 cg2d: Sum(rhs),rhsMax =   4.06163991328867E-12  5.27300765667849E-03
 cg2d: Sum(rhs),rhsMax =   4.10182998678010E-12  5.24003469943884E-03
 cg2d: Sum(rhs),rhsMax =   4.45288250716658E-12  5.20087154160704E-03
 cg2d: Sum(rhs),rhsMax =   4.11892742135933E-12  5.15580610102890E-03
 cg2d: Sum(rhs),rhsMax =   4.14823730920943E-12  5.15481304088411E-03
 cg2d: Sum(rhs),rhsMax =   3.95372623529511E-12  5.14871884879774E-03
(PID.TID 0000.0001)      cg2d_init_res =   8.64217859781889E-01
(PID.TID 0000.0001)      cg2d_iters(min,last) =      -1      32
(PID.TID 0000.0001)      cg2d_last_res =   7.72361536203578E-08
(PID.TID 0000.0001) // =======================================================
(PID.TID 0000.0001) // Begin MONITOR dynamic field statistics
(PID.TID 0000.0001) // =======================================================
(PID.TID 0000.0001) %MON time_tsnumber                =                  1200
(PID.TID 0000.0001) %MON time_secondsf                =   7.2000000000000E+04
(PID.TID 0000.0001) %MON dynstat_eta_max              =   4.6531173883965E-03
(PID.TID 0000.0001) %MON dynstat_eta_min              =  -3.1132417359729E-03
(PID.TID 0000.0001) %MON dynstat_eta_mean             =  -5.1544627087156E-19
(PID.TID 0000.0001) %MON dynstat_eta_sd               =   5.4460171766282E-04
(PID.TID 0000.0001) %MON dynstat_eta_del2             =   1.3150571229314E-07
(PID.TID 0000.0001) %MON dynstat_uvel_max             =   1.8305087156954E-02
(PID.TID 0000.0001) %MON dynstat_uvel_min             =  -2.9102378022539E-02
(PID.TID 0000.0001) %MON dynstat_uvel_mean            =  -9.1429799719366E-06
(PID.TID 0000.0001) %MON dynstat_uvel_sd              =   4.0886014665854E-04
(PID.TID 0000.0001) %MON dynstat_uvel_del2            =   3.4604397080896E-07
(PID.TID 0000.0001) %MON dynstat_vvel_max             =   8.9341251923141E-02
(PID.TID 0000.0001) %MON dynstat_vvel_min             =  -2.0502658157288E-02
(PID.TID 0000.0001) %MON dynstat_vvel_mean            =   3.1526350176734E-05
(PID.TID 0000.0001) %MON dynstat_vvel_sd              =   4.0783578696333E-03
(PID.TID 0000.0001) %MON dynstat_vvel_del2            =   3.4747201582341E-07
(PID.TID 0000.0001) %MON dynstat_wvel_max             =   1.5720769725123E-04
(PID.TID 0000.0001) %MON dynstat_wvel_min             =  -1.1215211728318E-04
(PID.TID 0000.0001) %MON dynstat_wvel_mean            =  -3.4461719410114E-07
(PID.TID 0000.0001) %MON dynstat_wvel_sd              =   1.4988205966864E-06
(PID.TID 0000.0001) %MON dynstat_wvel_del2            =   3.9078047113071E-09
(PID.TID 0000.0001) %MON dynstat_theta_max            =   1.6579280245106E+01
(PID.TID 0000.0001) %MON dynstat_theta_min            =   4.1845517829208E+00
(PID.TID 0000.0001) %MON dynstat_theta_mean           =   8.3857229908913E+00
(PID.TID 0000.0001) %MON dynstat_theta_sd             =   3.8617297748114E+00
(PID.TID 0000.0001) %MON dynstat_theta_del2           =   4.5999845167897E-07
(PID.TID 0000.0001) %MON dynstat_salt_max             =   3.4476104434845E+01
(PID.TID 0000.0001) %MON dynstat_salt_min             =   3.3629812356014E+01
(PID.TID 0000.0001) %MON dynstat_salt_mean            =   3.4127681842254E+01
(PID.TID 0000.0001) %MON dynstat_salt_sd              =   2.8356444047983E-01
(PID.TID 0000.0001) %MON dynstat_salt_del2            =   1.8192563200816E-08
(PID.TID 0000.0001) %MON trAdv_CFL_u_max              =   9.2911725447819E-04
(PID.TID 0000.0001) %MON trAdv_CFL_v_max              =   2.2904488940384E-03
(PID.TID 0000.0001) %MON trAdv_CFL_w_max              =   1.6225076628661E-03
(PID.TID 0000.0001) %MON advcfl_uvel_max              =   8.7673169550490E-04
(PID.TID 0000.0001) %MON advcfl_vvel_max              =   2.2900184190826E-03
(PID.TID 0000.0001) %MON advcfl_wvel_max              =   1.5022707067967E-03
(PID.TID 0000.0001) %MON advcfl_W_hf_max              =   1.5961626259715E-03
(PID.TID 0000.0001) %MON pe_b_mean                    =   2.2214959774198E-09
(PID.TID 0000.0001) %MON ke_max                       =   3.9753707500077E-03
(PID.TID 0000.0001) %MON ke_mean                      =   8.3675810365569E-06
(PID.TID 0000.0001) %MON ke_vol                       =   1.0416098804501E+14
(PID.TID 0000.0001) %MON vort_r_min                   =  -1.3441007673733E-05
(PID.TID 0000.0001) %MON vort_r_max                   =   1.7106729850101E-05
(PID.TID 0000.0001) %MON vort_a_mean                  =   6.9456055905738E-04
(PID.TID 0000.0001) %MON vort_a_sd                    =   7.8028182669931E-07
(PID.TID 0000.0001) %MON vort_p_mean                  =   7.0575608364114E-04
(PID.TID 0000.0001) %MON vort_p_sd                    =   1.5175018653323E-04
(PID.TID 0000.0001) %MON surfExpan_theta_mean         =   2.7095331663046E-12
(PID.TID 0000.0001) %MON surfExpan_salt_mean          =  -7.2904907188636E-22
(PID.TID 0000.0001) // =======================================================
(PID.TID 0000.0001) // End MONITOR dynamic field statistics
(PID.TID 0000.0001) // =======================================================
(PID.TID 0000.0001) // =======================================================
(PID.TID 0000.0001) // Begin OBCS MONITOR field statistics
(PID.TID 0000.0001) // =======================================================
(PID.TID 0000.0001) %MON obc_S_vVel_max               =   7.7505706080559E-02
(PID.TID 0000.0001) %MON obc_S_vVel_min               =  -4.2835128408137E-04
(PID.TID 0000.0001) %MON obc_S_vVel_mean              =   1.2011058991291E-20
(PID.TID 0000.0001) %MON obc_S_vVel_sd                =   3.5064343177158E-03
(PID.TID 0000.0001) %MON obc_S_vVel_Int               =   5.7411853049416E-12
(PID.TID 0000.0001) // =======================================================
(PID.TID 0000.0001) // End OBCS MONITOR field statistics
(PID.TID 0000.0001) // =======================================================
(PID.TID 0000.0001) %CHECKPOINT      1200 ckptB
(PID.TID 0000.0001)   Seconds in section "ALL                    [THE_MODEL_MAIN]":
(PID.TID 0000.0001)           User time:   442.58197342371568
(PID.TID 0000.0001)         System time:   3.8159840989392251
(PID.TID 0000.0001)     Wall clock time:   492.97406387329102
(PID.TID 0000.0001)          No. starts:           1
(PID.TID 0000.0001)           No. stops:           1
(PID.TID 0000.0001)   Seconds in section "INITIALISE_FIXED       [THE_MODEL_MAIN]":
(PID.TID 0000.0001)           User time:   11.388475627172738
(PID.TID 0000.0001)         System time:  0.11832099710591137
(PID.TID 0000.0001)     Wall clock time:   12.082018136978149
(PID.TID 0000.0001)          No. starts:           1
(PID.TID 0000.0001)           No. stops:           1
(PID.TID 0000.0001)   Seconds in section "THE_MAIN_LOOP          [THE_MODEL_MAIN]":
(PID.TID 0000.0001)           User time:   430.87104129791260
(PID.TID 0000.0001)         System time:   3.6422760859131813
(PID.TID 0000.0001)     Wall clock time:   476.99053287506104
(PID.TID 0000.0001)          No. starts:           1
(PID.TID 0000.0001)           No. stops:           1
(PID.TID 0000.0001)   Seconds in section "INITIALISE_VARIA    [THE_MAIN_LOOP]":
(PID.TID 0000.0001)           User time:   13.033351898193359
(PID.TID 0000.0001)         System time:  0.23317701369524002
(PID.TID 0000.0001)     Wall clock time:   18.966566085815430
(PID.TID 0000.0001)          No. starts:           1
(PID.TID 0000.0001)           No. stops:           1
(PID.TID 0000.0001)   Seconds in section "MAIN LOOP           [THE_MAIN_LOOP]":
(PID.TID 0000.0001)           User time:   417.83768463134766
(PID.TID 0000.0001)         System time:   3.4090970754623413
(PID.TID 0000.0001)     Wall clock time:   458.02395820617676
(PID.TID 0000.0001)          No. starts:           1
(PID.TID 0000.0001)           No. stops:           1
(PID.TID 0000.0001)   Seconds in section "MAIN_DO_LOOP        [THE_MAIN_LOOP]":
(PID.TID 0000.0001)           User time:   417.83634757995605
(PID.TID 0000.0001)         System time:   3.4090217649936676
(PID.TID 0000.0001)     Wall clock time:   458.02222585678101
(PID.TID 0000.0001)          No. starts:         600
(PID.TID 0000.0001)           No. stops:         600
(PID.TID 0000.0001)   Seconds in section "FORWARD_STEP        [MAIN_DO_LOOP]":
(PID.TID 0000.0001)           User time:   417.83240890502930
(PID.TID 0000.0001)         System time:   3.4088182747364044
(PID.TID 0000.0001)     Wall clock time:   458.01865029335022
(PID.TID 0000.0001)          No. starts:         600
(PID.TID 0000.0001)           No. stops:         600
(PID.TID 0000.0001)   Seconds in section "LOAD_FIELDS_DRIVER  [FORWARD_STEP]":
(PID.TID 0000.0001)           User time:   5.0430297851562500E-003
(PID.TID 0000.0001)         System time:   2.7701258659362793E-004
(PID.TID 0000.0001)     Wall clock time:   5.3272247314453125E-003
(PID.TID 0000.0001)          No. starts:         600
(PID.TID 0000.0001)           No. stops:         600
(PID.TID 0000.0001)   Seconds in section "EXTERNAL_FLDS_LOAD [LOAD_FLDS_DRIVER]":
(PID.TID 0000.0001)           User time:   1.6212463378906250E-003
(PID.TID 0000.0001)         System time:   9.0956687927246094E-005
(PID.TID 0000.0001)     Wall clock time:   1.7421245574951172E-003
(PID.TID 0000.0001)          No. starts:         600
(PID.TID 0000.0001)           No. stops:         600
(PID.TID 0000.0001)   Seconds in section "DO_ATMOSPHERIC_PHYS [FORWARD_STEP]":
(PID.TID 0000.0001)           User time:   1.5640258789062500E-003
(PID.TID 0000.0001)         System time:   9.7632408142089844E-005
(PID.TID 0000.0001)     Wall clock time:   1.8086433410644531E-003
(PID.TID 0000.0001)          No. starts:         600
(PID.TID 0000.0001)           No. stops:         600
(PID.TID 0000.0001)   Seconds in section "DO_OCEANIC_PHYS     [FORWARD_STEP]":
(PID.TID 0000.0001)           User time:   5.8147182464599609
(PID.TID 0000.0001)         System time:   1.6607254743576050E-002
(PID.TID 0000.0001)     Wall clock time:   5.8344810009002686
(PID.TID 0000.0001)          No. starts:         600
(PID.TID 0000.0001)           No. stops:         600
(PID.TID 0000.0001)   Seconds in section "THERMODYNAMICS      [FORWARD_STEP]":
(PID.TID 0000.0001)           User time:   49.317480087280273
(PID.TID 0000.0001)         System time:  0.11456289887428284
(PID.TID 0000.0001)     Wall clock time:   49.464688062667847
(PID.TID 0000.0001)          No. starts:         600
(PID.TID 0000.0001)           No. stops:         600
(PID.TID 0000.0001)   Seconds in section "DYNAMICS            [FORWARD_STEP]":
(PID.TID 0000.0001)           User time:   50.313671112060547
(PID.TID 0000.0001)         System time:  0.11847725510597229
(PID.TID 0000.0001)     Wall clock time:   50.458114862442017
(PID.TID 0000.0001)          No. starts:         600
(PID.TID 0000.0001)           No. stops:         600
(PID.TID 0000.0001)   Seconds in section "SOLVE_FOR_PRESSURE  [FORWARD_STEP]":
(PID.TID 0000.0001)           User time:   6.0909442901611328
(PID.TID 0000.0001)         System time:   1.4507114887237549E-002
(PID.TID 0000.0001)     Wall clock time:   6.1292674541473389
(PID.TID 0000.0001)          No. starts:         600
(PID.TID 0000.0001)           No. stops:         600
(PID.TID 0000.0001)   Seconds in section "MOM_CORRECTION_STEP [FORWARD_STEP]":
(PID.TID 0000.0001)           User time:   2.1586933135986328
(PID.TID 0000.0001)         System time:   5.0023496150970459E-003
(PID.TID 0000.0001)     Wall clock time:   2.1652367115020752
(PID.TID 0000.0001)          No. starts:         600
(PID.TID 0000.0001)           No. stops:         600
(PID.TID 0000.0001)   Seconds in section "INTEGR_CONTINUITY   [FORWARD_STEP]":
(PID.TID 0000.0001)           User time:   3.2499732971191406
(PID.TID 0000.0001)         System time:   7.2788596153259277E-003
(PID.TID 0000.0001)     Wall clock time:   3.2590675354003906
(PID.TID 0000.0001)          No. starts:         600
(PID.TID 0000.0001)           No. stops:         600
(PID.TID 0000.0001)   Seconds in section "TRC_CORRECTION_STEP [FORWARD_STEP]":
(PID.TID 0000.0001)           User time:   2.3574829101562500E-003
(PID.TID 0000.0001)         System time:   1.0046362876892090E-004
(PID.TID 0000.0001)     Wall clock time:   2.0382404327392578E-003
(PID.TID 0000.0001)          No. starts:         600
(PID.TID 0000.0001)           No. stops:         600
(PID.TID 0000.0001)   Seconds in section "BLOCKING_EXCHANGES  [FORWARD_STEP]":
(PID.TID 0000.0001)           User time:   11.053396224975586
(PID.TID 0000.0001)         System time:   2.8382778167724609E-002
(PID.TID 0000.0001)     Wall clock time:   11.100067377090454
(PID.TID 0000.0001)          No. starts:         600
(PID.TID 0000.0001)           No. stops:         600
(PID.TID 0000.0001)   Seconds in section "MONITOR             [FORWARD_STEP]":
(PID.TID 0000.0001)           User time:   1.3921661376953125
(PID.TID 0000.0001)         System time:   4.4427514076232910E-003
(PID.TID 0000.0001)     Wall clock time:   1.4139559268951416
(PID.TID 0000.0001)          No. starts:         600
(PID.TID 0000.0001)           No. stops:         600
(PID.TID 0000.0001)   Seconds in section "DO_THE_MODEL_IO     [FORWARD_STEP]":
(PID.TID 0000.0001)           User time:   288.29162979125977
(PID.TID 0000.0001)         System time:   2.3425716757774353
(PID.TID 0000.0001)     Wall clock time:   302.76265788078308
(PID.TID 0000.0001)          No. starts:         600
(PID.TID 0000.0001)           No. stops:         600
(PID.TID 0000.0001)   Seconds in section "DO_WRITE_PICKUP     [FORWARD_STEP]":
(PID.TID 0000.0001)           User time:  0.11561012268066406
(PID.TID 0000.0001)         System time:  0.74837288260459900
(PID.TID 0000.0001)     Wall clock time:   25.396847486495972
(PID.TID 0000.0001)          No. starts:         600
(PID.TID 0000.0001)           No. stops:         600
(PID.TID 0000.0001) // ======================================================
(PID.TID 0000.0001) // Tile <-> Tile communication statistics
(PID.TID 0000.0001) // ======================================================
(PID.TID 0000.0001) // o Tile number: 000001
(PID.TID 0000.0001) //         No. X exchanges =              0
(PID.TID 0000.0001) //            Max. X spins =              0
(PID.TID 0000.0001) //            Min. X spins =     1000000000
(PID.TID 0000.0001) //          Total. X spins =              0
(PID.TID 0000.0001) //            Avg. X spins =       0.00E+00
(PID.TID 0000.0001) //         No. Y exchanges =              0
(PID.TID 0000.0001) //            Max. Y spins =              0
(PID.TID 0000.0001) //            Min. Y spins =     1000000000
(PID.TID 0000.0001) //          Total. Y spins =              0
(PID.TID 0000.0001) //            Avg. Y spins =       0.00E+00
(PID.TID 0000.0001) // o Tile number: 000002
(PID.TID 0000.0001) //         No. X exchanges =              0
(PID.TID 0000.0001) //            Max. X spins =              0
(PID.TID 0000.0001) //            Min. X spins =     1000000000
(PID.TID 0000.0001) //          Total. X spins =              0
(PID.TID 0000.0001) //            Avg. X spins =       0.00E+00
(PID.TID 0000.0001) //         No. Y exchanges =              0
(PID.TID 0000.0001) //            Max. Y spins =              0
(PID.TID 0000.0001) //            Min. Y spins =     1000000000
(PID.TID 0000.0001) //          Total. Y spins =              0
(PID.TID 0000.0001) //            Avg. Y spins =       0.00E+00
(PID.TID 0000.0001) // o Tile number: 000003
(PID.TID 0000.0001) //         No. X exchanges =              0
(PID.TID 0000.0001) //            Max. X spins =              0
(PID.TID 0000.0001) //            Min. X spins =     1000000000
(PID.TID 0000.0001) //          Total. X spins =              0
(PID.TID 0000.0001) //            Avg. X spins =       0.00E+00
(PID.TID 0000.0001) //         No. Y exchanges =              0
(PID.TID 0000.0001) //            Max. Y spins =              0
(PID.TID 0000.0001) //            Min. Y spins =     1000000000
(PID.TID 0000.0001) //          Total. Y spins =              0
(PID.TID 0000.0001) //            Avg. Y spins =       0.00E+00
(PID.TID 0000.0001) // o Tile number: 000004
(PID.TID 0000.0001) //         No. X exchanges =              0
(PID.TID 0000.0001) //            Max. X spins =              0
(PID.TID 0000.0001) //            Min. X spins =     1000000000
(PID.TID 0000.0001) //          Total. X spins =              0
(PID.TID 0000.0001) //            Avg. X spins =       0.00E+00
(PID.TID 0000.0001) //         No. Y exchanges =              0
(PID.TID 0000.0001) //            Max. Y spins =              0
(PID.TID 0000.0001) //            Min. Y spins =     1000000000
(PID.TID 0000.0001) //          Total. Y spins =              0
(PID.TID 0000.0001) //            Avg. Y spins =       0.00E+00
(PID.TID 0000.0001) // o Tile number: 000005
(PID.TID 0000.0001) //         No. X exchanges =              0
(PID.TID 0000.0001) //            Max. X spins =              0
(PID.TID 0000.0001) //            Min. X spins =     1000000000
(PID.TID 0000.0001) //          Total. X spins =              0
(PID.TID 0000.0001) //            Avg. X spins =       0.00E+00
(PID.TID 0000.0001) //         No. Y exchanges =              0
(PID.TID 0000.0001) //            Max. Y spins =              0
(PID.TID 0000.0001) //            Min. Y spins =     1000000000
(PID.TID 0000.0001) //          Total. Y spins =              0
(PID.TID 0000.0001) //            Avg. Y spins =       0.00E+00
(PID.TID 0000.0001) // o Tile number: 000006
(PID.TID 0000.0001) //         No. X exchanges =              0
(PID.TID 0000.0001) //            Max. X spins =              0
(PID.TID 0000.0001) //            Min. X spins =     1000000000
(PID.TID 0000.0001) //          Total. X spins =              0
(PID.TID 0000.0001) //            Avg. X spins =       0.00E+00
(PID.TID 0000.0001) //         No. Y exchanges =              0
(PID.TID 0000.0001) //            Max. Y spins =              0
(PID.TID 0000.0001) //            Min. Y spins =     1000000000
(PID.TID 0000.0001) //          Total. Y spins =              0
(PID.TID 0000.0001) //            Avg. Y spins =       0.00E+00
(PID.TID 0000.0001) // o Tile number: 000007
(PID.TID 0000.0001) //         No. X exchanges =              0
(PID.TID 0000.0001) //            Max. X spins =              0
(PID.TID 0000.0001) //            Min. X spins =     1000000000
(PID.TID 0000.0001) //          Total. X spins =              0
(PID.TID 0000.0001) //            Avg. X spins =       0.00E+00
(PID.TID 0000.0001) //         No. Y exchanges =              0
(PID.TID 0000.0001) //            Max. Y spins =              0
(PID.TID 0000.0001) //            Min. Y spins =     1000000000
(PID.TID 0000.0001) //          Total. Y spins =              0
(PID.TID 0000.0001) //            Avg. Y spins =       0.00E+00
(PID.TID 0000.0001) // o Tile number: 000008
(PID.TID 0000.0001) //         No. X exchanges =              0
(PID.TID 0000.0001) //            Max. X spins =              0
(PID.TID 0000.0001) //            Min. X spins =     1000000000
(PID.TID 0000.0001) //          Total. X spins =              0
(PID.TID 0000.0001) //            Avg. X spins =       0.00E+00
(PID.TID 0000.0001) //         No. Y exchanges =              0
(PID.TID 0000.0001) //            Max. Y spins =              0
(PID.TID 0000.0001) //            Min. Y spins =     1000000000
(PID.TID 0000.0001) //          Total. Y spins =              0
(PID.TID 0000.0001) //            Avg. Y spins =       0.00E+00
(PID.TID 0000.0001) // o Tile number: 000009
(PID.TID 0000.0001) //         No. X exchanges =              0
(PID.TID 0000.0001) //            Max. X spins =              0
(PID.TID 0000.0001) //            Min. X spins =     1000000000
(PID.TID 0000.0001) //          Total. X spins =              0
(PID.TID 0000.0001) //            Avg. X spins =       0.00E+00
(PID.TID 0000.0001) //         No. Y exchanges =              0
(PID.TID 0000.0001) //            Max. Y spins =              0
(PID.TID 0000.0001) //            Min. Y spins =     1000000000
(PID.TID 0000.0001) //          Total. Y spins =              0
(PID.TID 0000.0001) //            Avg. Y spins =       0.00E+00
(PID.TID 0000.0001) // o Tile number: 000010
(PID.TID 0000.0001) //         No. X exchanges =              0
(PID.TID 0000.0001) //            Max. X spins =              0
(PID.TID 0000.0001) //            Min. X spins =     1000000000
(PID.TID 0000.0001) //          Total. X spins =              0
(PID.TID 0000.0001) //            Avg. X spins =       0.00E+00
(PID.TID 0000.0001) //         No. Y exchanges =              0
(PID.TID 0000.0001) //            Max. Y spins =              0
(PID.TID 0000.0001) //            Min. Y spins =     1000000000
(PID.TID 0000.0001) //          Total. Y spins =              0
(PID.TID 0000.0001) //            Avg. Y spins =       0.00E+00
(PID.TID 0000.0001) // o Tile number: 000011
(PID.TID 0000.0001) //         No. X exchanges =              0
(PID.TID 0000.0001) //            Max. X spins =              0
(PID.TID 0000.0001) //            Min. X spins =     1000000000
(PID.TID 0000.0001) //          Total. X spins =              0
(PID.TID 0000.0001) //            Avg. X spins =       0.00E+00
(PID.TID 0000.0001) //         No. Y exchanges =              0
(PID.TID 0000.0001) //            Max. Y spins =              0
(PID.TID 0000.0001) //            Min. Y spins =     1000000000
(PID.TID 0000.0001) //          Total. Y spins =              0
(PID.TID 0000.0001) //            Avg. Y spins =       0.00E+00
(PID.TID 0000.0001) // o Tile number: 000012
(PID.TID 0000.0001) //         No. X exchanges =              0
(PID.TID 0000.0001) //            Max. X spins =              0
(PID.TID 0000.0001) //            Min. X spins =     1000000000
(PID.TID 0000.0001) //          Total. X spins =              0
(PID.TID 0000.0001) //            Avg. X spins =       0.00E+00
(PID.TID 0000.0001) //         No. Y exchanges =              0
(PID.TID 0000.0001) //            Max. Y spins =              0
(PID.TID 0000.0001) //            Min. Y spins =     1000000000
(PID.TID 0000.0001) //          Total. Y spins =              0
(PID.TID 0000.0001) //            Avg. Y spins =       0.00E+00
(PID.TID 0000.0001) // o Tile number: 000013
(PID.TID 0000.0001) //         No. X exchanges =              0
(PID.TID 0000.0001) //            Max. X spins =              0
(PID.TID 0000.0001) //            Min. X spins =     1000000000
(PID.TID 0000.0001) //          Total. X spins =              0
(PID.TID 0000.0001) //            Avg. X spins =       0.00E+00
(PID.TID 0000.0001) //         No. Y exchanges =              0
(PID.TID 0000.0001) //            Max. Y spins =              0
(PID.TID 0000.0001) //            Min. Y spins =     1000000000
(PID.TID 0000.0001) //          Total. Y spins =              0
(PID.TID 0000.0001) //            Avg. Y spins =       0.00E+00
(PID.TID 0000.0001) // o Tile number: 000014
(PID.TID 0000.0001) //         No. X exchanges =              0
(PID.TID 0000.0001) //            Max. X spins =              0
(PID.TID 0000.0001) //            Min. X spins =     1000000000
(PID.TID 0000.0001) //          Total. X spins =              0
(PID.TID 0000.0001) //            Avg. X spins =       0.00E+00
(PID.TID 0000.0001) //         No. Y exchanges =              0
(PID.TID 0000.0001) //            Max. Y spins =              0
(PID.TID 0000.0001) //            Min. Y spins =     1000000000
(PID.TID 0000.0001) //          Total. Y spins =              0
(PID.TID 0000.0001) //            Avg. Y spins =       0.00E+00
(PID.TID 0000.0001) // o Tile number: 000015
(PID.TID 0000.0001) //         No. X exchanges =              0
(PID.TID 0000.0001) //            Max. X spins =              0
(PID.TID 0000.0001) //            Min. X spins =     1000000000
(PID.TID 0000.0001) //          Total. X spins =              0
(PID.TID 0000.0001) //            Avg. X spins =       0.00E+00
(PID.TID 0000.0001) //         No. Y exchanges =              0
(PID.TID 0000.0001) //            Max. Y spins =              0
(PID.TID 0000.0001) //            Min. Y spins =     1000000000
(PID.TID 0000.0001) //          Total. Y spins =              0
(PID.TID 0000.0001) //            Avg. Y spins =       0.00E+00
(PID.TID 0000.0001) // o Tile number: 000016
(PID.TID 0000.0001) //         No. X exchanges =              0
(PID.TID 0000.0001) //            Max. X spins =              0
(PID.TID 0000.0001) //            Min. X spins =     1000000000
(PID.TID 0000.0001) //          Total. X spins =              0
(PID.TID 0000.0001) //            Avg. X spins =       0.00E+00
(PID.TID 0000.0001) //         No. Y exchanges =              0
(PID.TID 0000.0001) //            Max. Y spins =              0
(PID.TID 0000.0001) //            Min. Y spins =     1000000000
(PID.TID 0000.0001) //          Total. Y spins =              0
(PID.TID 0000.0001) //            Avg. Y spins =       0.00E+00
(PID.TID 0000.0001) // o Tile number: 000017
(PID.TID 0000.0001) //         No. X exchanges =              0
(PID.TID 0000.0001) //            Max. X spins =              0
(PID.TID 0000.0001) //            Min. X spins =     1000000000
(PID.TID 0000.0001) //          Total. X spins =              0
(PID.TID 0000.0001) //            Avg. X spins =       0.00E+00
(PID.TID 0000.0001) //         No. Y exchanges =              0
(PID.TID 0000.0001) //            Max. Y spins =              0
(PID.TID 0000.0001) //            Min. Y spins =     1000000000
(PID.TID 0000.0001) //          Total. Y spins =              0
(PID.TID 0000.0001) //            Avg. Y spins =       0.00E+00
(PID.TID 0000.0001) // o Tile number: 000018
(PID.TID 0000.0001) //         No. X exchanges =              0
(PID.TID 0000.0001) //            Max. X spins =              0
(PID.TID 0000.0001) //            Min. X spins =     1000000000
(PID.TID 0000.0001) //          Total. X spins =              0
(PID.TID 0000.0001) //            Avg. X spins =       0.00E+00
(PID.TID 0000.0001) //         No. Y exchanges =              0
(PID.TID 0000.0001) //            Max. Y spins =              0
(PID.TID 0000.0001) //            Min. Y spins =     1000000000
(PID.TID 0000.0001) //          Total. Y spins =              0
(PID.TID 0000.0001) //            Avg. Y spins =       0.00E+00
(PID.TID 0000.0001) // o Tile number: 000019
(PID.TID 0000.0001) //         No. X exchanges =              0
(PID.TID 0000.0001) //            Max. X spins =              0
(PID.TID 0000.0001) //            Min. X spins =     1000000000
(PID.TID 0000.0001) //          Total. X spins =              0
(PID.TID 0000.0001) //            Avg. X spins =       0.00E+00
(PID.TID 0000.0001) //         No. Y exchanges =              0
(PID.TID 0000.0001) //            Max. Y spins =              0
(PID.TID 0000.0001) //            Min. Y spins =     1000000000
(PID.TID 0000.0001) //          Total. Y spins =              0
(PID.TID 0000.0001) //            Avg. Y spins =       0.00E+00
(PID.TID 0000.0001) // o Tile number: 000020
(PID.TID 0000.0001) //         No. X exchanges =              0
(PID.TID 0000.0001) //            Max. X spins =              0
(PID.TID 0000.0001) //            Min. X spins =     1000000000
(PID.TID 0000.0001) //          Total. X spins =              0
(PID.TID 0000.0001) //            Avg. X spins =       0.00E+00
(PID.TID 0000.0001) //         No. Y exchanges =              0
(PID.TID 0000.0001) //            Max. Y spins =              0
(PID.TID 0000.0001) //            Min. Y spins =     1000000000
(PID.TID 0000.0001) //          Total. Y spins =              0
(PID.TID 0000.0001) //            Avg. Y spins =       0.00E+00
(PID.TID 0000.0001) // o Tile number: 000021
(PID.TID 0000.0001) //         No. X exchanges =              0
(PID.TID 0000.0001) //            Max. X spins =              0
(PID.TID 0000.0001) //            Min. X spins =     1000000000
(PID.TID 0000.0001) //          Total. X spins =              0
(PID.TID 0000.0001) //            Avg. X spins =       0.00E+00
(PID.TID 0000.0001) //         No. Y exchanges =              0
(PID.TID 0000.0001) //            Max. Y spins =              0
(PID.TID 0000.0001) //            Min. Y spins =     1000000000
(PID.TID 0000.0001) //          Total. Y spins =              0
(PID.TID 0000.0001) //            Avg. Y spins =       0.00E+00
(PID.TID 0000.0001) // o Tile number: 000022
(PID.TID 0000.0001) //         No. X exchanges =              0
(PID.TID 0000.0001) //            Max. X spins =              0
(PID.TID 0000.0001) //            Min. X spins =     1000000000
(PID.TID 0000.0001) //          Total. X spins =              0
(PID.TID 0000.0001) //            Avg. X spins =       0.00E+00
(PID.TID 0000.0001) //         No. Y exchanges =              0
(PID.TID 0000.0001) //            Max. Y spins =              0
(PID.TID 0000.0001) //            Min. Y spins =     1000000000
(PID.TID 0000.0001) //          Total. Y spins =              0
(PID.TID 0000.0001) //            Avg. Y spins =       0.00E+00
(PID.TID 0000.0001) // o Tile number: 000023
(PID.TID 0000.0001) //         No. X exchanges =              0
(PID.TID 0000.0001) //            Max. X spins =              0
(PID.TID 0000.0001) //            Min. X spins =     1000000000
(PID.TID 0000.0001) //          Total. X spins =              0
(PID.TID 0000.0001) //            Avg. X spins =       0.00E+00
(PID.TID 0000.0001) //         No. Y exchanges =              0
(PID.TID 0000.0001) //            Max. Y spins =              0
(PID.TID 0000.0001) //            Min. Y spins =     1000000000
(PID.TID 0000.0001) //          Total. Y spins =              0
(PID.TID 0000.0001) //            Avg. Y spins =       0.00E+00
(PID.TID 0000.0001) // o Tile number: 000024
(PID.TID 0000.0001) //         No. X exchanges =              0
(PID.TID 0000.0001) //            Max. X spins =              0
(PID.TID 0000.0001) //            Min. X spins =     1000000000
(PID.TID 0000.0001) //          Total. X spins =              0
(PID.TID 0000.0001) //            Avg. X spins =       0.00E+00
(PID.TID 0000.0001) //         No. Y exchanges =              0
(PID.TID 0000.0001) //            Max. Y spins =              0
(PID.TID 0000.0001) //            Min. Y spins =     1000000000
(PID.TID 0000.0001) //          Total. Y spins =              0
(PID.TID 0000.0001) //            Avg. Y spins =       0.00E+00
(PID.TID 0000.0001) // o Tile number: 000025
(PID.TID 0000.0001) //         No. X exchanges =              0
(PID.TID 0000.0001) //            Max. X spins =              0
(PID.TID 0000.0001) //            Min. X spins =     1000000000
(PID.TID 0000.0001) //          Total. X spins =              0
(PID.TID 0000.0001) //            Avg. X spins =       0.00E+00
(PID.TID 0000.0001) //         No. Y exchanges =              0
(PID.TID 0000.0001) //            Max. Y spins =              0
(PID.TID 0000.0001) //            Min. Y spins =     1000000000
(PID.TID 0000.0001) //          Total. Y spins =              0
(PID.TID 0000.0001) //            Avg. Y spins =       0.00E+00
(PID.TID 0000.0001) // o Tile number: 000026
(PID.TID 0000.0001) //         No. X exchanges =              0
(PID.TID 0000.0001) //            Max. X spins =              0
(PID.TID 0000.0001) //            Min. X spins =     1000000000
(PID.TID 0000.0001) //          Total. X spins =              0
(PID.TID 0000.0001) //            Avg. X spins =       0.00E+00
(PID.TID 0000.0001) //         No. Y exchanges =              0
(PID.TID 0000.0001) //            Max. Y spins =              0
(PID.TID 0000.0001) //            Min. Y spins =     1000000000
(PID.TID 0000.0001) //          Total. Y spins =              0
(PID.TID 0000.0001) //            Avg. Y spins =       0.00E+00
(PID.TID 0000.0001) // o Tile number: 000027
(PID.TID 0000.0001) //         No. X exchanges =              0
(PID.TID 0000.0001) //            Max. X spins =              0
(PID.TID 0000.0001) //            Min. X spins =     1000000000
(PID.TID 0000.0001) //          Total. X spins =              0
(PID.TID 0000.0001) //            Avg. X spins =       0.00E+00
(PID.TID 0000.0001) //         No. Y exchanges =              0
(PID.TID 0000.0001) //            Max. Y spins =              0
(PID.TID 0000.0001) //            Min. Y spins =     1000000000
(PID.TID 0000.0001) //          Total. Y spins =              0
(PID.TID 0000.0001) //            Avg. Y spins =       0.00E+00
(PID.TID 0000.0001) // o Tile number: 000028
(PID.TID 0000.0001) //         No. X exchanges =              0
(PID.TID 0000.0001) //            Max. X spins =              0
(PID.TID 0000.0001) //            Min. X spins =     1000000000
(PID.TID 0000.0001) //          Total. X spins =              0
(PID.TID 0000.0001) //            Avg. X spins =       0.00E+00
(PID.TID 0000.0001) //         No. Y exchanges =              0
(PID.TID 0000.0001) //            Max. Y spins =              0
(PID.TID 0000.0001) //            Min. Y spins =     1000000000
(PID.TID 0000.0001) //          Total. Y spins =              0
(PID.TID 0000.0001) //            Avg. Y spins =       0.00E+00
(PID.TID 0000.0001) // o Tile number: 000029
(PID.TID 0000.0001) //         No. X exchanges =              0
(PID.TID 0000.0001) //            Max. X spins =              0
(PID.TID 0000.0001) //            Min. X spins =     1000000000
(PID.TID 0000.0001) //          Total. X spins =              0
(PID.TID 0000.0001) //            Avg. X spins =       0.00E+00
(PID.TID 0000.0001) //         No. Y exchanges =              0
(PID.TID 0000.0001) //            Max. Y spins =              0
(PID.TID 0000.0001) //            Min. Y spins =     1000000000
(PID.TID 0000.0001) //          Total. Y spins =              0
(PID.TID 0000.0001) //            Avg. Y spins =       0.00E+00
(PID.TID 0000.0001) // o Tile number: 000030
(PID.TID 0000.0001) //         No. X exchanges =              0
(PID.TID 0000.0001) //            Max. X spins =              0
(PID.TID 0000.0001) //            Min. X spins =     1000000000
(PID.TID 0000.0001) //          Total. X spins =              0
(PID.TID 0000.0001) //            Avg. X spins =       0.00E+00
(PID.TID 0000.0001) //         No. Y exchanges =              0
(PID.TID 0000.0001) //            Max. Y spins =              0
(PID.TID 0000.0001) //            Min. Y spins =     1000000000
(PID.TID 0000.0001) //          Total. Y spins =              0
(PID.TID 0000.0001) //            Avg. Y spins =       0.00E+00
(PID.TID 0000.0001) // o Tile number: 000031
(PID.TID 0000.0001) //         No. X exchanges =              0
(PID.TID 0000.0001) //            Max. X spins =              0
(PID.TID 0000.0001) //            Min. X spins =     1000000000
(PID.TID 0000.0001) //          Total. X spins =              0
(PID.TID 0000.0001) //            Avg. X spins =       0.00E+00
(PID.TID 0000.0001) //         No. Y exchanges =              0
(PID.TID 0000.0001) //            Max. Y spins =              0
(PID.TID 0000.0001) //            Min. Y spins =     1000000000
(PID.TID 0000.0001) //          Total. Y spins =              0
(PID.TID 0000.0001) //            Avg. Y spins =       0.00E+00
(PID.TID 0000.0001) // o Tile number: 000032
(PID.TID 0000.0001) //         No. X exchanges =              0
(PID.TID 0000.0001) //            Max. X spins =              0
(PID.TID 0000.0001) //            Min. X spins =     1000000000
(PID.TID 0000.0001) //          Total. X spins =              0
(PID.TID 0000.0001) //            Avg. X spins =       0.00E+00
(PID.TID 0000.0001) //         No. Y exchanges =              0
(PID.TID 0000.0001) //            Max. Y spins =              0
(PID.TID 0000.0001) //            Min. Y spins =     1000000000
(PID.TID 0000.0001) //          Total. Y spins =              0
(PID.TID 0000.0001) //            Avg. Y spins =       0.00E+00
(PID.TID 0000.0001) // o Tile number: 000033
(PID.TID 0000.0001) //         No. X exchanges =              0
(PID.TID 0000.0001) //            Max. X spins =              0
(PID.TID 0000.0001) //            Min. X spins =     1000000000
(PID.TID 0000.0001) //          Total. X spins =              0
(PID.TID 0000.0001) //            Avg. X spins =       0.00E+00
(PID.TID 0000.0001) //         No. Y exchanges =              0
(PID.TID 0000.0001) //            Max. Y spins =              0
(PID.TID 0000.0001) //            Min. Y spins =     1000000000
(PID.TID 0000.0001) //          Total. Y spins =              0
(PID.TID 0000.0001) //            Avg. Y spins =       0.00E+00
(PID.TID 0000.0001) // o Tile number: 000034
(PID.TID 0000.0001) //         No. X exchanges =              0
(PID.TID 0000.0001) //            Max. X spins =              0
(PID.TID 0000.0001) //            Min. X spins =     1000000000
(PID.TID 0000.0001) //          Total. X spins =              0
(PID.TID 0000.0001) //            Avg. X spins =       0.00E+00
(PID.TID 0000.0001) //         No. Y exchanges =              0
(PID.TID 0000.0001) //            Max. Y spins =              0
(PID.TID 0000.0001) //            Min. Y spins =     1000000000
(PID.TID 0000.0001) //          Total. Y spins =              0
(PID.TID 0000.0001) //            Avg. Y spins =       0.00E+00
(PID.TID 0000.0001) // o Tile number: 000035
(PID.TID 0000.0001) //         No. X exchanges =              0
(PID.TID 0000.0001) //            Max. X spins =              0
(PID.TID 0000.0001) //            Min. X spins =     1000000000
(PID.TID 0000.0001) //          Total. X spins =              0
(PID.TID 0000.0001) //            Avg. X spins =       0.00E+00
(PID.TID 0000.0001) //         No. Y exchanges =              0
(PID.TID 0000.0001) //            Max. Y spins =              0
(PID.TID 0000.0001) //            Min. Y spins =     1000000000
(PID.TID 0000.0001) //          Total. Y spins =              0
(PID.TID 0000.0001) //            Avg. Y spins =       0.00E+00
(PID.TID 0000.0001) // o Tile number: 000036
(PID.TID 0000.0001) //         No. X exchanges =              0
(PID.TID 0000.0001) //            Max. X spins =              0
(PID.TID 0000.0001) //            Min. X spins =     1000000000
(PID.TID 0000.0001) //          Total. X spins =              0
(PID.TID 0000.0001) //            Avg. X spins =       0.00E+00
(PID.TID 0000.0001) //         No. Y exchanges =              0
(PID.TID 0000.0001) //            Max. Y spins =              0
(PID.TID 0000.0001) //            Min. Y spins =     1000000000
(PID.TID 0000.0001) //          Total. Y spins =              0
(PID.TID 0000.0001) //            Avg. Y spins =       0.00E+00
(PID.TID 0000.0001) // o Tile number: 000037
(PID.TID 0000.0001) //         No. X exchanges =              0
(PID.TID 0000.0001) //            Max. X spins =              0
(PID.TID 0000.0001) //            Min. X spins =     1000000000
(PID.TID 0000.0001) //          Total. X spins =              0
(PID.TID 0000.0001) //            Avg. X spins =       0.00E+00
(PID.TID 0000.0001) //         No. Y exchanges =              0
(PID.TID 0000.0001) //            Max. Y spins =              0
(PID.TID 0000.0001) //            Min. Y spins =     1000000000
(PID.TID 0000.0001) //          Total. Y spins =              0
(PID.TID 0000.0001) //            Avg. Y spins =       0.00E+00
(PID.TID 0000.0001) // o Tile number: 000038
(PID.TID 0000.0001) //         No. X exchanges =              0
(PID.TID 0000.0001) //            Max. X spins =              0
(PID.TID 0000.0001) //            Min. X spins =     1000000000
(PID.TID 0000.0001) //          Total. X spins =              0
(PID.TID 0000.0001) //            Avg. X spins =       0.00E+00
(PID.TID 0000.0001) //         No. Y exchanges =              0
(PID.TID 0000.0001) //            Max. Y spins =              0
(PID.TID 0000.0001) //            Min. Y spins =     1000000000
(PID.TID 0000.0001) //          Total. Y spins =              0
(PID.TID 0000.0001) //            Avg. Y spins =       0.00E+00
(PID.TID 0000.0001) // o Tile number: 000039
(PID.TID 0000.0001) //         No. X exchanges =              0
(PID.TID 0000.0001) //            Max. X spins =              0
(PID.TID 0000.0001) //            Min. X spins =     1000000000
(PID.TID 0000.0001) //          Total. X spins =              0
(PID.TID 0000.0001) //            Avg. X spins =       0.00E+00
(PID.TID 0000.0001) //         No. Y exchanges =              0
(PID.TID 0000.0001) //            Max. Y spins =              0
(PID.TID 0000.0001) //            Min. Y spins =     1000000000
(PID.TID 0000.0001) //          Total. Y spins =              0
(PID.TID 0000.0001) //            Avg. Y spins =       0.00E+00
(PID.TID 0000.0001) // o Tile number: 000040
(PID.TID 0000.0001) //         No. X exchanges =              0
(PID.TID 0000.0001) //            Max. X spins =              0
(PID.TID 0000.0001) //            Min. X spins =     1000000000
(PID.TID 0000.0001) //          Total. X spins =              0
(PID.TID 0000.0001) //            Avg. X spins =       0.00E+00
(PID.TID 0000.0001) //         No. Y exchanges =              0
(PID.TID 0000.0001) //            Max. Y spins =              0
(PID.TID 0000.0001) //            Min. Y spins =     1000000000
(PID.TID 0000.0001) //          Total. Y spins =              0
(PID.TID 0000.0001) //            Avg. Y spins =       0.00E+00
(PID.TID 0000.0001) // o Tile number: 000041
(PID.TID 0000.0001) //         No. X exchanges =              0
(PID.TID 0000.0001) //            Max. X spins =              0
(PID.TID 0000.0001) //            Min. X spins =     1000000000
(PID.TID 0000.0001) //          Total. X spins =              0
(PID.TID 0000.0001) //            Avg. X spins =       0.00E+00
(PID.TID 0000.0001) //         No. Y exchanges =              0
(PID.TID 0000.0001) //            Max. Y spins =              0
(PID.TID 0000.0001) //            Min. Y spins =     1000000000
(PID.TID 0000.0001) //          Total. Y spins =              0
(PID.TID 0000.0001) //            Avg. Y spins =       0.00E+00
(PID.TID 0000.0001) // o Tile number: 000042
(PID.TID 0000.0001) //         No. X exchanges =              0
(PID.TID 0000.0001) //            Max. X spins =              0
(PID.TID 0000.0001) //            Min. X spins =     1000000000
(PID.TID 0000.0001) //          Total. X spins =              0
(PID.TID 0000.0001) //            Avg. X spins =       0.00E+00
(PID.TID 0000.0001) //         No. Y exchanges =              0
(PID.TID 0000.0001) //            Max. Y spins =              0
(PID.TID 0000.0001) //            Min. Y spins =     1000000000
(PID.TID 0000.0001) //          Total. Y spins =              0
(PID.TID 0000.0001) //            Avg. Y spins =       0.00E+00
(PID.TID 0000.0001) // o Tile number: 000043
(PID.TID 0000.0001) //         No. X exchanges =              0
(PID.TID 0000.0001) //            Max. X spins =              0
(PID.TID 0000.0001) //            Min. X spins =     1000000000
(PID.TID 0000.0001) //          Total. X spins =              0
(PID.TID 0000.0001) //            Avg. X spins =       0.00E+00
(PID.TID 0000.0001) //         No. Y exchanges =              0
(PID.TID 0000.0001) //            Max. Y spins =              0
(PID.TID 0000.0001) //            Min. Y spins =     1000000000
(PID.TID 0000.0001) //          Total. Y spins =              0
(PID.TID 0000.0001) //            Avg. Y spins =       0.00E+00
(PID.TID 0000.0001) // o Tile number: 000044
(PID.TID 0000.0001) //         No. X exchanges =              0
(PID.TID 0000.0001) //            Max. X spins =              0
(PID.TID 0000.0001) //            Min. X spins =     1000000000
(PID.TID 0000.0001) //          Total. X spins =              0
(PID.TID 0000.0001) //            Avg. X spins =       0.00E+00
(PID.TID 0000.0001) //         No. Y exchanges =              0
(PID.TID 0000.0001) //            Max. Y spins =              0
(PID.TID 0000.0001) //            Min. Y spins =     1000000000
(PID.TID 0000.0001) //          Total. Y spins =              0
(PID.TID 0000.0001) //            Avg. Y spins =       0.00E+00
(PID.TID 0000.0001) // o Tile number: 000045
(PID.TID 0000.0001) //         No. X exchanges =              0
(PID.TID 0000.0001) //            Max. X spins =              0
(PID.TID 0000.0001) //            Min. X spins =     1000000000
(PID.TID 0000.0001) //          Total. X spins =              0
(PID.TID 0000.0001) //            Avg. X spins =       0.00E+00
(PID.TID 0000.0001) //         No. Y exchanges =              0
(PID.TID 0000.0001) //            Max. Y spins =              0
(PID.TID 0000.0001) //            Min. Y spins =     1000000000
(PID.TID 0000.0001) //          Total. Y spins =              0
(PID.TID 0000.0001) //            Avg. Y spins =       0.00E+00
(PID.TID 0000.0001) // o Tile number: 000046
(PID.TID 0000.0001) //         No. X exchanges =              0
(PID.TID 0000.0001) //            Max. X spins =              0
(PID.TID 0000.0001) //            Min. X spins =     1000000000
(PID.TID 0000.0001) //          Total. X spins =              0
(PID.TID 0000.0001) //            Avg. X spins =       0.00E+00
(PID.TID 0000.0001) //         No. Y exchanges =              0
(PID.TID 0000.0001) //            Max. Y spins =              0
(PID.TID 0000.0001) //            Min. Y spins =     1000000000
(PID.TID 0000.0001) //          Total. Y spins =              0
(PID.TID 0000.0001) //            Avg. Y spins =       0.00E+00
(PID.TID 0000.0001) // o Tile number: 000047
(PID.TID 0000.0001) //         No. X exchanges =              0
(PID.TID 0000.0001) //            Max. X spins =              0
(PID.TID 0000.0001) //            Min. X spins =     1000000000
(PID.TID 0000.0001) //          Total. X spins =              0
(PID.TID 0000.0001) //            Avg. X spins =       0.00E+00
(PID.TID 0000.0001) //         No. Y exchanges =              0
(PID.TID 0000.0001) //            Max. Y spins =              0
(PID.TID 0000.0001) //            Min. Y spins =     1000000000
(PID.TID 0000.0001) //          Total. Y spins =              0
(PID.TID 0000.0001) //            Avg. Y spins =       0.00E+00
(PID.TID 0000.0001) // o Tile number: 000048
(PID.TID 0000.0001) //         No. X exchanges =              0
(PID.TID 0000.0001) //            Max. X spins =              0
(PID.TID 0000.0001) //            Min. X spins =     1000000000
(PID.TID 0000.0001) //          Total. X spins =              0
(PID.TID 0000.0001) //            Avg. X spins =       0.00E+00
(PID.TID 0000.0001) //         No. Y exchanges =              0
(PID.TID 0000.0001) //            Max. Y spins =              0
(PID.TID 0000.0001) //            Min. Y spins =     1000000000
(PID.TID 0000.0001) //          Total. Y spins =              0
(PID.TID 0000.0001) //            Avg. Y spins =       0.00E+00
(PID.TID 0000.0001) // o Tile number: 000049
(PID.TID 0000.0001) //         No. X exchanges =              0
(PID.TID 0000.0001) //            Max. X spins =              0
(PID.TID 0000.0001) //            Min. X spins =     1000000000
(PID.TID 0000.0001) //          Total. X spins =              0
(PID.TID 0000.0001) //            Avg. X spins =       0.00E+00
(PID.TID 0000.0001) //         No. Y exchanges =              0
(PID.TID 0000.0001) //            Max. Y spins =              0
(PID.TID 0000.0001) //            Min. Y spins =     1000000000
(PID.TID 0000.0001) //          Total. Y spins =              0
(PID.TID 0000.0001) //            Avg. Y spins =       0.00E+00
(PID.TID 0000.0001) // o Tile number: 000050
(PID.TID 0000.0001) //         No. X exchanges =              0
(PID.TID 0000.0001) //            Max. X spins =              0
(PID.TID 0000.0001) //            Min. X spins =     1000000000
(PID.TID 0000.0001) //          Total. X spins =              0
(PID.TID 0000.0001) //            Avg. X spins =       0.00E+00
(PID.TID 0000.0001) //         No. Y exchanges =              0
(PID.TID 0000.0001) //            Max. Y spins =              0
(PID.TID 0000.0001) //            Min. Y spins =     1000000000
(PID.TID 0000.0001) //          Total. Y spins =              0
(PID.TID 0000.0001) //            Avg. Y spins =       0.00E+00
(PID.TID 0000.0001) // o Tile number: 000051
(PID.TID 0000.0001) //         No. X exchanges =              0
(PID.TID 0000.0001) //            Max. X spins =              0
(PID.TID 0000.0001) //            Min. X spins =     1000000000
(PID.TID 0000.0001) //          Total. X spins =              0
(PID.TID 0000.0001) //            Avg. X spins =       0.00E+00
(PID.TID 0000.0001) //         No. Y exchanges =              0
(PID.TID 0000.0001) //            Max. Y spins =              0
(PID.TID 0000.0001) //            Min. Y spins =     1000000000
(PID.TID 0000.0001) //          Total. Y spins =              0
(PID.TID 0000.0001) //            Avg. Y spins =       0.00E+00
(PID.TID 0000.0001) // o Tile number: 000052
(PID.TID 0000.0001) //         No. X exchanges =              0
(PID.TID 0000.0001) //            Max. X spins =              0
(PID.TID 0000.0001) //            Min. X spins =     1000000000
(PID.TID 0000.0001) //          Total. X spins =              0
(PID.TID 0000.0001) //            Avg. X spins =       0.00E+00
(PID.TID 0000.0001) //         No. Y exchanges =              0
(PID.TID 0000.0001) //            Max. Y spins =              0
(PID.TID 0000.0001) //            Min. Y spins =     1000000000
(PID.TID 0000.0001) //          Total. Y spins =              0
(PID.TID 0000.0001) //            Avg. Y spins =       0.00E+00
(PID.TID 0000.0001) // o Tile number: 000053
(PID.TID 0000.0001) //         No. X exchanges =              0
(PID.TID 0000.0001) //            Max. X spins =              0
(PID.TID 0000.0001) //            Min. X spins =     1000000000
(PID.TID 0000.0001) //          Total. X spins =              0
(PID.TID 0000.0001) //            Avg. X spins =       0.00E+00
(PID.TID 0000.0001) //         No. Y exchanges =              0
(PID.TID 0000.0001) //            Max. Y spins =              0
(PID.TID 0000.0001) //            Min. Y spins =     1000000000
(PID.TID 0000.0001) //          Total. Y spins =              0
(PID.TID 0000.0001) //            Avg. Y spins =       0.00E+00
(PID.TID 0000.0001) // o Tile number: 000054
(PID.TID 0000.0001) //         No. X exchanges =              0
(PID.TID 0000.0001) //            Max. X spins =              0
(PID.TID 0000.0001) //            Min. X spins =     1000000000
(PID.TID 0000.0001) //          Total. X spins =              0
(PID.TID 0000.0001) //            Avg. X spins =       0.00E+00
(PID.TID 0000.0001) //         No. Y exchanges =              0
(PID.TID 0000.0001) //            Max. Y spins =              0
(PID.TID 0000.0001) //            Min. Y spins =     1000000000
(PID.TID 0000.0001) //          Total. Y spins =              0
(PID.TID 0000.0001) //            Avg. Y spins =       0.00E+00
(PID.TID 0000.0001) // o Tile number: 000055
(PID.TID 0000.0001) //         No. X exchanges =              0
(PID.TID 0000.0001) //            Max. X spins =              0
(PID.TID 0000.0001) //            Min. X spins =     1000000000
(PID.TID 0000.0001) //          Total. X spins =              0
(PID.TID 0000.0001) //            Avg. X spins =       0.00E+00
(PID.TID 0000.0001) //         No. Y exchanges =              0
(PID.TID 0000.0001) //            Max. Y spins =              0
(PID.TID 0000.0001) //            Min. Y spins =     1000000000
(PID.TID 0000.0001) //          Total. Y spins =              0
(PID.TID 0000.0001) //            Avg. Y spins =       0.00E+00
(PID.TID 0000.0001) // o Tile number: 000056
(PID.TID 0000.0001) //         No. X exchanges =              0
(PID.TID 0000.0001) //            Max. X spins =              0
(PID.TID 0000.0001) //            Min. X spins =     1000000000
(PID.TID 0000.0001) //          Total. X spins =              0
(PID.TID 0000.0001) //            Avg. X spins =       0.00E+00
(PID.TID 0000.0001) //         No. Y exchanges =              0
(PID.TID 0000.0001) //            Max. Y spins =              0
(PID.TID 0000.0001) //            Min. Y spins =     1000000000
(PID.TID 0000.0001) //          Total. Y spins =              0
(PID.TID 0000.0001) //            Avg. Y spins =       0.00E+00
(PID.TID 0000.0001) // o Tile number: 000057
(PID.TID 0000.0001) //         No. X exchanges =              0
(PID.TID 0000.0001) //            Max. X spins =              0
(PID.TID 0000.0001) //            Min. X spins =     1000000000
(PID.TID 0000.0001) //          Total. X spins =              0
(PID.TID 0000.0001) //            Avg. X spins =       0.00E+00
(PID.TID 0000.0001) //         No. Y exchanges =              0
(PID.TID 0000.0001) //            Max. Y spins =              0
(PID.TID 0000.0001) //            Min. Y spins =     1000000000
(PID.TID 0000.0001) //          Total. Y spins =              0
(PID.TID 0000.0001) //            Avg. Y spins =       0.00E+00
(PID.TID 0000.0001) // o Tile number: 000058
(PID.TID 0000.0001) //         No. X exchanges =              0
(PID.TID 0000.0001) //            Max. X spins =              0
(PID.TID 0000.0001) //            Min. X spins =     1000000000
(PID.TID 0000.0001) //          Total. X spins =              0
(PID.TID 0000.0001) //            Avg. X spins =       0.00E+00
(PID.TID 0000.0001) //         No. Y exchanges =              0
(PID.TID 0000.0001) //            Max. Y spins =              0
(PID.TID 0000.0001) //            Min. Y spins =     1000000000
(PID.TID 0000.0001) //          Total. Y spins =              0
(PID.TID 0000.0001) //            Avg. Y spins =       0.00E+00
(PID.TID 0000.0001) // o Tile number: 000059
(PID.TID 0000.0001) //         No. X exchanges =              0
(PID.TID 0000.0001) //            Max. X spins =              0
(PID.TID 0000.0001) //            Min. X spins =     1000000000
(PID.TID 0000.0001) //          Total. X spins =              0
(PID.TID 0000.0001) //            Avg. X spins =       0.00E+00
(PID.TID 0000.0001) //         No. Y exchanges =              0
(PID.TID 0000.0001) //            Max. Y spins =              0
(PID.TID 0000.0001) //            Min. Y spins =     1000000000
(PID.TID 0000.0001) //          Total. Y spins =              0
(PID.TID 0000.0001) //            Avg. Y spins =       0.00E+00
(PID.TID 0000.0001) // o Tile number: 000060
(PID.TID 0000.0001) //         No. X exchanges =              0
(PID.TID 0000.0001) //            Max. X spins =              0
(PID.TID 0000.0001) //            Min. X spins =     1000000000
(PID.TID 0000.0001) //          Total. X spins =              0
(PID.TID 0000.0001) //            Avg. X spins =       0.00E+00
(PID.TID 0000.0001) //         No. Y exchanges =              0
(PID.TID 0000.0001) //            Max. Y spins =              0
(PID.TID 0000.0001) //            Min. Y spins =     1000000000
(PID.TID 0000.0001) //          Total. Y spins =              0
(PID.TID 0000.0001) //            Avg. Y spins =       0.00E+00
(PID.TID 0000.0001) // o Tile number: 000061
(PID.TID 0000.0001) //         No. X exchanges =              0
(PID.TID 0000.0001) //            Max. X spins =              0
(PID.TID 0000.0001) //            Min. X spins =     1000000000
(PID.TID 0000.0001) //          Total. X spins =              0
(PID.TID 0000.0001) //            Avg. X spins =       0.00E+00
(PID.TID 0000.0001) //         No. Y exchanges =              0
(PID.TID 0000.0001) //            Max. Y spins =              0
(PID.TID 0000.0001) //            Min. Y spins =     1000000000
(PID.TID 0000.0001) //          Total. Y spins =              0
(PID.TID 0000.0001) //            Avg. Y spins =       0.00E+00
(PID.TID 0000.0001) // o Tile number: 000062
(PID.TID 0000.0001) //         No. X exchanges =              0
(PID.TID 0000.0001) //            Max. X spins =              0
(PID.TID 0000.0001) //            Min. X spins =     1000000000
(PID.TID 0000.0001) //          Total. X spins =              0
(PID.TID 0000.0001) //            Avg. X spins =       0.00E+00
(PID.TID 0000.0001) //         No. Y exchanges =              0
(PID.TID 0000.0001) //            Max. Y spins =              0
(PID.TID 0000.0001) //            Min. Y spins =     1000000000
(PID.TID 0000.0001) //          Total. Y spins =              0
(PID.TID 0000.0001) //            Avg. Y spins =       0.00E+00
(PID.TID 0000.0001) // o Tile number: 000063
(PID.TID 0000.0001) //         No. X exchanges =              0
(PID.TID 0000.0001) //            Max. X spins =              0
(PID.TID 0000.0001) //            Min. X spins =     1000000000
(PID.TID 0000.0001) //          Total. X spins =              0
(PID.TID 0000.0001) //            Avg. X spins =       0.00E+00
(PID.TID 0000.0001) //         No. Y exchanges =              0
(PID.TID 0000.0001) //            Max. Y spins =              0
(PID.TID 0000.0001) //            Min. Y spins =     1000000000
(PID.TID 0000.0001) //          Total. Y spins =              0
(PID.TID 0000.0001) //            Avg. Y spins =       0.00E+00
(PID.TID 0000.0001) // o Tile number: 000064
(PID.TID 0000.0001) //         No. X exchanges =              0
(PID.TID 0000.0001) //            Max. X spins =              0
(PID.TID 0000.0001) //            Min. X spins =     1000000000
(PID.TID 0000.0001) //          Total. X spins =              0
(PID.TID 0000.0001) //            Avg. X spins =       0.00E+00
(PID.TID 0000.0001) //         No. Y exchanges =              0
(PID.TID 0000.0001) //            Max. Y spins =              0
(PID.TID 0000.0001) //            Min. Y spins =     1000000000
(PID.TID 0000.0001) //          Total. Y spins =              0
(PID.TID 0000.0001) //            Avg. Y spins =       0.00E+00
(PID.TID 0000.0001) // o Tile number: 000065
(PID.TID 0000.0001) //         No. X exchanges =              0
(PID.TID 0000.0001) //            Max. X spins =              0
(PID.TID 0000.0001) //            Min. X spins =     1000000000
(PID.TID 0000.0001) //          Total. X spins =              0
(PID.TID 0000.0001) //            Avg. X spins =       0.00E+00
(PID.TID 0000.0001) //         No. Y exchanges =              0
(PID.TID 0000.0001) //            Max. Y spins =              0
(PID.TID 0000.0001) //            Min. Y spins =     1000000000
(PID.TID 0000.0001) //          Total. Y spins =              0
(PID.TID 0000.0001) //            Avg. Y spins =       0.00E+00
(PID.TID 0000.0001) // o Tile number: 000066
(PID.TID 0000.0001) //         No. X exchanges =              0
(PID.TID 0000.0001) //            Max. X spins =              0
(PID.TID 0000.0001) //            Min. X spins =     1000000000
(PID.TID 0000.0001) //          Total. X spins =              0
(PID.TID 0000.0001) //            Avg. X spins =       0.00E+00
(PID.TID 0000.0001) //         No. Y exchanges =              0
(PID.TID 0000.0001) //            Max. Y spins =              0
(PID.TID 0000.0001) //            Min. Y spins =     1000000000
(PID.TID 0000.0001) //          Total. Y spins =              0
(PID.TID 0000.0001) //            Avg. Y spins =       0.00E+00
(PID.TID 0000.0001) // o Tile number: 000067
(PID.TID 0000.0001) //         No. X exchanges =              0
(PID.TID 0000.0001) //            Max. X spins =              0
(PID.TID 0000.0001) //            Min. X spins =     1000000000
(PID.TID 0000.0001) //          Total. X spins =              0
(PID.TID 0000.0001) //            Avg. X spins =       0.00E+00
(PID.TID 0000.0001) //         No. Y exchanges =              0
(PID.TID 0000.0001) //            Max. Y spins =              0
(PID.TID 0000.0001) //            Min. Y spins =     1000000000
(PID.TID 0000.0001) //          Total. Y spins =              0
(PID.TID 0000.0001) //            Avg. Y spins =       0.00E+00
(PID.TID 0000.0001) // o Tile number: 000068
(PID.TID 0000.0001) //         No. X exchanges =              0
(PID.TID 0000.0001) //            Max. X spins =              0
(PID.TID 0000.0001) //            Min. X spins =     1000000000
(PID.TID 0000.0001) //          Total. X spins =              0
(PID.TID 0000.0001) //            Avg. X spins =       0.00E+00
(PID.TID 0000.0001) //         No. Y exchanges =              0
(PID.TID 0000.0001) //            Max. Y spins =              0
(PID.TID 0000.0001) //            Min. Y spins =     1000000000
(PID.TID 0000.0001) //          Total. Y spins =              0
(PID.TID 0000.0001) //            Avg. Y spins =       0.00E+00
(PID.TID 0000.0001) // o Tile number: 000069
(PID.TID 0000.0001) //         No. X exchanges =              0
(PID.TID 0000.0001) //            Max. X spins =              0
(PID.TID 0000.0001) //            Min. X spins =     1000000000
(PID.TID 0000.0001) //          Total. X spins =              0
(PID.TID 0000.0001) //            Avg. X spins =       0.00E+00
(PID.TID 0000.0001) //         No. Y exchanges =              0
(PID.TID 0000.0001) //            Max. Y spins =              0
(PID.TID 0000.0001) //            Min. Y spins =     1000000000
(PID.TID 0000.0001) //          Total. Y spins =              0
(PID.TID 0000.0001) //            Avg. Y spins =       0.00E+00
(PID.TID 0000.0001) // o Tile number: 000070
(PID.TID 0000.0001) //         No. X exchanges =              0
(PID.TID 0000.0001) //            Max. X spins =              0
(PID.TID 0000.0001) //            Min. X spins =     1000000000
(PID.TID 0000.0001) //          Total. X spins =              0
(PID.TID 0000.0001) //            Avg. X spins =       0.00E+00
(PID.TID 0000.0001) //         No. Y exchanges =              0
(PID.TID 0000.0001) //            Max. Y spins =              0
(PID.TID 0000.0001) //            Min. Y spins =     1000000000
(PID.TID 0000.0001) //          Total. Y spins =              0
(PID.TID 0000.0001) //            Avg. Y spins =       0.00E+00
(PID.TID 0000.0001) // o Tile number: 000071
(PID.TID 0000.0001) //         No. X exchanges =              0
(PID.TID 0000.0001) //            Max. X spins =              0
(PID.TID 0000.0001) //            Min. X spins =     1000000000
(PID.TID 0000.0001) //          Total. X spins =              0
(PID.TID 0000.0001) //            Avg. X spins =       0.00E+00
(PID.TID 0000.0001) //         No. Y exchanges =              0
(PID.TID 0000.0001) //            Max. Y spins =              0
(PID.TID 0000.0001) //            Min. Y spins =     1000000000
(PID.TID 0000.0001) //          Total. Y spins =              0
(PID.TID 0000.0001) //            Avg. Y spins =       0.00E+00
(PID.TID 0000.0001) // o Tile number: 000072
(PID.TID 0000.0001) //         No. X exchanges =              0
(PID.TID 0000.0001) //            Max. X spins =              0
(PID.TID 0000.0001) //            Min. X spins =     1000000000
(PID.TID 0000.0001) //          Total. X spins =              0
(PID.TID 0000.0001) //            Avg. X spins =       0.00E+00
(PID.TID 0000.0001) //         No. Y exchanges =              0
(PID.TID 0000.0001) //            Max. Y spins =              0
(PID.TID 0000.0001) //            Min. Y spins =     1000000000
(PID.TID 0000.0001) //          Total. Y spins =              0
(PID.TID 0000.0001) //            Avg. Y spins =       0.00E+00
(PID.TID 0000.0001) // o Tile number: 000073
(PID.TID 0000.0001) //         No. X exchanges =              0
(PID.TID 0000.0001) //            Max. X spins =              0
(PID.TID 0000.0001) //            Min. X spins =     1000000000
(PID.TID 0000.0001) //          Total. X spins =              0
(PID.TID 0000.0001) //            Avg. X spins =       0.00E+00
(PID.TID 0000.0001) //         No. Y exchanges =              0
(PID.TID 0000.0001) //            Max. Y spins =              0
(PID.TID 0000.0001) //            Min. Y spins =     1000000000
(PID.TID 0000.0001) //          Total. Y spins =              0
(PID.TID 0000.0001) //            Avg. Y spins =       0.00E+00
(PID.TID 0000.0001) // o Tile number: 000074
(PID.TID 0000.0001) //         No. X exchanges =              0
(PID.TID 0000.0001) //            Max. X spins =              0
(PID.TID 0000.0001) //            Min. X spins =     1000000000
(PID.TID 0000.0001) //          Total. X spins =              0
(PID.TID 0000.0001) //            Avg. X spins =       0.00E+00
(PID.TID 0000.0001) //         No. Y exchanges =              0
(PID.TID 0000.0001) //            Max. Y spins =              0
(PID.TID 0000.0001) //            Min. Y spins =     1000000000
(PID.TID 0000.0001) //          Total. Y spins =              0
(PID.TID 0000.0001) //            Avg. Y spins =       0.00E+00
(PID.TID 0000.0001) // o Tile number: 000075
(PID.TID 0000.0001) //         No. X exchanges =              0
(PID.TID 0000.0001) //            Max. X spins =              0
(PID.TID 0000.0001) //            Min. X spins =     1000000000
(PID.TID 0000.0001) //          Total. X spins =              0
(PID.TID 0000.0001) //            Avg. X spins =       0.00E+00
(PID.TID 0000.0001) //         No. Y exchanges =              0
(PID.TID 0000.0001) //            Max. Y spins =              0
(PID.TID 0000.0001) //            Min. Y spins =     1000000000
(PID.TID 0000.0001) //          Total. Y spins =              0
(PID.TID 0000.0001) //            Avg. Y spins =       0.00E+00
(PID.TID 0000.0001) // o Tile number: 000076
(PID.TID 0000.0001) //         No. X exchanges =              0
(PID.TID 0000.0001) //            Max. X spins =              0
(PID.TID 0000.0001) //            Min. X spins =     1000000000
(PID.TID 0000.0001) //          Total. X spins =              0
(PID.TID 0000.0001) //            Avg. X spins =       0.00E+00
(PID.TID 0000.0001) //         No. Y exchanges =              0
(PID.TID 0000.0001) //            Max. Y spins =              0
(PID.TID 0000.0001) //            Min. Y spins =     1000000000
(PID.TID 0000.0001) //          Total. Y spins =              0
(PID.TID 0000.0001) //            Avg. Y spins =       0.00E+00
(PID.TID 0000.0001) // o Tile number: 000077
(PID.TID 0000.0001) //         No. X exchanges =              0
(PID.TID 0000.0001) //            Max. X spins =              0
(PID.TID 0000.0001) //            Min. X spins =     1000000000
(PID.TID 0000.0001) //          Total. X spins =              0
(PID.TID 0000.0001) //            Avg. X spins =       0.00E+00
(PID.TID 0000.0001) //         No. Y exchanges =              0
(PID.TID 0000.0001) //            Max. Y spins =              0
(PID.TID 0000.0001) //            Min. Y spins =     1000000000
(PID.TID 0000.0001) //          Total. Y spins =              0
(PID.TID 0000.0001) //            Avg. Y spins =       0.00E+00
(PID.TID 0000.0001) // o Tile number: 000078
(PID.TID 0000.0001) //         No. X exchanges =              0
(PID.TID 0000.0001) //            Max. X spins =              0
(PID.TID 0000.0001) //            Min. X spins =     1000000000
(PID.TID 0000.0001) //          Total. X spins =              0
(PID.TID 0000.0001) //            Avg. X spins =       0.00E+00
(PID.TID 0000.0001) //         No. Y exchanges =              0
(PID.TID 0000.0001) //            Max. Y spins =              0
(PID.TID 0000.0001) //            Min. Y spins =     1000000000
(PID.TID 0000.0001) //          Total. Y spins =              0
(PID.TID 0000.0001) //            Avg. Y spins =       0.00E+00
(PID.TID 0000.0001) // o Tile number: 000079
(PID.TID 0000.0001) //         No. X exchanges =              0
(PID.TID 0000.0001) //            Max. X spins =              0
(PID.TID 0000.0001) //            Min. X spins =     1000000000
(PID.TID 0000.0001) //          Total. X spins =              0
(PID.TID 0000.0001) //            Avg. X spins =       0.00E+00
(PID.TID 0000.0001) //         No. Y exchanges =              0
(PID.TID 0000.0001) //            Max. Y spins =              0
(PID.TID 0000.0001) //            Min. Y spins =     1000000000
(PID.TID 0000.0001) //          Total. Y spins =              0
(PID.TID 0000.0001) //            Avg. Y spins =       0.00E+00
(PID.TID 0000.0001) // o Tile number: 000080
(PID.TID 0000.0001) //         No. X exchanges =              0
(PID.TID 0000.0001) //            Max. X spins =              0
(PID.TID 0000.0001) //            Min. X spins =     1000000000
(PID.TID 0000.0001) //          Total. X spins =              0
(PID.TID 0000.0001) //            Avg. X spins =       0.00E+00
(PID.TID 0000.0001) //         No. Y exchanges =              0
(PID.TID 0000.0001) //            Max. Y spins =              0
(PID.TID 0000.0001) //            Min. Y spins =     1000000000
(PID.TID 0000.0001) //          Total. Y spins =              0
(PID.TID 0000.0001) //            Avg. Y spins =       0.00E+00
(PID.TID 0000.0001) // o Tile number: 000081
(PID.TID 0000.0001) //         No. X exchanges =              0
(PID.TID 0000.0001) //            Max. X spins =              0
(PID.TID 0000.0001) //            Min. X spins =     1000000000
(PID.TID 0000.0001) //          Total. X spins =              0
(PID.TID 0000.0001) //            Avg. X spins =       0.00E+00
(PID.TID 0000.0001) //         No. Y exchanges =              0
(PID.TID 0000.0001) //            Max. Y spins =              0
(PID.TID 0000.0001) //            Min. Y spins =     1000000000
(PID.TID 0000.0001) //          Total. Y spins =              0
(PID.TID 0000.0001) //            Avg. Y spins =       0.00E+00
(PID.TID 0000.0001) // o Tile number: 000082
(PID.TID 0000.0001) //         No. X exchanges =              0
(PID.TID 0000.0001) //            Max. X spins =              0
(PID.TID 0000.0001) //            Min. X spins =     1000000000
(PID.TID 0000.0001) //          Total. X spins =              0
(PID.TID 0000.0001) //            Avg. X spins =       0.00E+00
(PID.TID 0000.0001) //         No. Y exchanges =              0
(PID.TID 0000.0001) //            Max. Y spins =              0
(PID.TID 0000.0001) //            Min. Y spins =     1000000000
(PID.TID 0000.0001) //          Total. Y spins =              0
(PID.TID 0000.0001) //            Avg. Y spins =       0.00E+00
(PID.TID 0000.0001) // o Tile number: 000083
(PID.TID 0000.0001) //         No. X exchanges =              0
(PID.TID 0000.0001) //            Max. X spins =              0
(PID.TID 0000.0001) //            Min. X spins =     1000000000
(PID.TID 0000.0001) //          Total. X spins =              0
(PID.TID 0000.0001) //            Avg. X spins =       0.00E+00
(PID.TID 0000.0001) //         No. Y exchanges =              0
(PID.TID 0000.0001) //            Max. Y spins =              0
(PID.TID 0000.0001) //            Min. Y spins =     1000000000
(PID.TID 0000.0001) //          Total. Y spins =              0
(PID.TID 0000.0001) //            Avg. Y spins =       0.00E+00
(PID.TID 0000.0001) // o Tile number: 000084
(PID.TID 0000.0001) //         No. X exchanges =              0
(PID.TID 0000.0001) //            Max. X spins =              0
(PID.TID 0000.0001) //            Min. X spins =     1000000000
(PID.TID 0000.0001) //          Total. X spins =              0
(PID.TID 0000.0001) //            Avg. X spins =       0.00E+00
(PID.TID 0000.0001) //         No. Y exchanges =              0
(PID.TID 0000.0001) //            Max. Y spins =              0
(PID.TID 0000.0001) //            Min. Y spins =     1000000000
(PID.TID 0000.0001) //          Total. Y spins =              0
(PID.TID 0000.0001) //            Avg. Y spins =       0.00E+00
(PID.TID 0000.0001) // o Tile number: 000085
(PID.TID 0000.0001) //         No. X exchanges =              0
(PID.TID 0000.0001) //            Max. X spins =              0
(PID.TID 0000.0001) //            Min. X spins =     1000000000
(PID.TID 0000.0001) //          Total. X spins =              0
(PID.TID 0000.0001) //            Avg. X spins =       0.00E+00
(PID.TID 0000.0001) //         No. Y exchanges =              0
(PID.TID 0000.0001) //            Max. Y spins =              0
(PID.TID 0000.0001) //            Min. Y spins =     1000000000
(PID.TID 0000.0001) //          Total. Y spins =              0
(PID.TID 0000.0001) //            Avg. Y spins =       0.00E+00
(PID.TID 0000.0001) // o Tile number: 000086
(PID.TID 0000.0001) //         No. X exchanges =              0
(PID.TID 0000.0001) //            Max. X spins =              0
(PID.TID 0000.0001) //            Min. X spins =     1000000000
(PID.TID 0000.0001) //          Total. X spins =              0
(PID.TID 0000.0001) //            Avg. X spins =       0.00E+00
(PID.TID 0000.0001) //         No. Y exchanges =              0
(PID.TID 0000.0001) //            Max. Y spins =              0
(PID.TID 0000.0001) //            Min. Y spins =     1000000000
(PID.TID 0000.0001) //          Total. Y spins =              0
(PID.TID 0000.0001) //            Avg. Y spins =       0.00E+00
(PID.TID 0000.0001) // o Tile number: 000087
(PID.TID 0000.0001) //         No. X exchanges =              0
(PID.TID 0000.0001) //            Max. X spins =              0
(PID.TID 0000.0001) //            Min. X spins =     1000000000
(PID.TID 0000.0001) //          Total. X spins =              0
(PID.TID 0000.0001) //            Avg. X spins =       0.00E+00
(PID.TID 0000.0001) //         No. Y exchanges =              0
(PID.TID 0000.0001) //            Max. Y spins =              0
(PID.TID 0000.0001) //            Min. Y spins =     1000000000
(PID.TID 0000.0001) //          Total. Y spins =              0
(PID.TID 0000.0001) //            Avg. Y spins =       0.00E+00
(PID.TID 0000.0001) // o Tile number: 000088
(PID.TID 0000.0001) //         No. X exchanges =              0
(PID.TID 0000.0001) //            Max. X spins =              0
(PID.TID 0000.0001) //            Min. X spins =     1000000000
(PID.TID 0000.0001) //          Total. X spins =              0
(PID.TID 0000.0001) //            Avg. X spins =       0.00E+00
(PID.TID 0000.0001) //         No. Y exchanges =              0
(PID.TID 0000.0001) //            Max. Y spins =              0
(PID.TID 0000.0001) //            Min. Y spins =     1000000000
(PID.TID 0000.0001) //          Total. Y spins =              0
(PID.TID 0000.0001) //            Avg. Y spins =       0.00E+00
(PID.TID 0000.0001) // o Tile number: 000089
(PID.TID 0000.0001) //         No. X exchanges =              0
(PID.TID 0000.0001) //            Max. X spins =              0
(PID.TID 0000.0001) //            Min. X spins =     1000000000
(PID.TID 0000.0001) //          Total. X spins =              0
(PID.TID 0000.0001) //            Avg. X spins =       0.00E+00
(PID.TID 0000.0001) //         No. Y exchanges =              0
(PID.TID 0000.0001) //            Max. Y spins =              0
(PID.TID 0000.0001) //            Min. Y spins =     1000000000
(PID.TID 0000.0001) //          Total. Y spins =              0
(PID.TID 0000.0001) //            Avg. Y spins =       0.00E+00
(PID.TID 0000.0001) // o Tile number: 000090
(PID.TID 0000.0001) //         No. X exchanges =              0
(PID.TID 0000.0001) //            Max. X spins =              0
(PID.TID 0000.0001) //            Min. X spins =     1000000000
(PID.TID 0000.0001) //          Total. X spins =              0
(PID.TID 0000.0001) //            Avg. X spins =       0.00E+00
(PID.TID 0000.0001) //         No. Y exchanges =              0
(PID.TID 0000.0001) //            Max. Y spins =              0
(PID.TID 0000.0001) //            Min. Y spins =     1000000000
(PID.TID 0000.0001) //          Total. Y spins =              0
(PID.TID 0000.0001) //            Avg. Y spins =       0.00E+00
(PID.TID 0000.0001) // o Tile number: 000091
(PID.TID 0000.0001) //         No. X exchanges =              0
(PID.TID 0000.0001) //            Max. X spins =              0
(PID.TID 0000.0001) //            Min. X spins =     1000000000
(PID.TID 0000.0001) //          Total. X spins =              0
(PID.TID 0000.0001) //            Avg. X spins =       0.00E+00
(PID.TID 0000.0001) //         No. Y exchanges =              0
(PID.TID 0000.0001) //            Max. Y spins =              0
(PID.TID 0000.0001) //            Min. Y spins =     1000000000
(PID.TID 0000.0001) //          Total. Y spins =              0
(PID.TID 0000.0001) //            Avg. Y spins =       0.00E+00
(PID.TID 0000.0001) // o Tile number: 000092
(PID.TID 0000.0001) //         No. X exchanges =              0
(PID.TID 0000.0001) //            Max. X spins =              0
(PID.TID 0000.0001) //            Min. X spins =     1000000000
(PID.TID 0000.0001) //          Total. X spins =              0
(PID.TID 0000.0001) //            Avg. X spins =       0.00E+00
(PID.TID 0000.0001) //         No. Y exchanges =              0
(PID.TID 0000.0001) //            Max. Y spins =              0
(PID.TID 0000.0001) //            Min. Y spins =     1000000000
(PID.TID 0000.0001) //          Total. Y spins =              0
(PID.TID 0000.0001) //            Avg. Y spins =       0.00E+00
(PID.TID 0000.0001) // o Tile number: 000093
(PID.TID 0000.0001) //         No. X exchanges =              0
(PID.TID 0000.0001) //            Max. X spins =              0
(PID.TID 0000.0001) //            Min. X spins =     1000000000
(PID.TID 0000.0001) //          Total. X spins =              0
(PID.TID 0000.0001) //            Avg. X spins =       0.00E+00
(PID.TID 0000.0001) //         No. Y exchanges =              0
(PID.TID 0000.0001) //            Max. Y spins =              0
(PID.TID 0000.0001) //            Min. Y spins =     1000000000
(PID.TID 0000.0001) //          Total. Y spins =              0
(PID.TID 0000.0001) //            Avg. Y spins =       0.00E+00
(PID.TID 0000.0001) // o Tile number: 000094
(PID.TID 0000.0001) //         No. X exchanges =              0
(PID.TID 0000.0001) //            Max. X spins =              0
(PID.TID 0000.0001) //            Min. X spins =     1000000000
(PID.TID 0000.0001) //          Total. X spins =              0
(PID.TID 0000.0001) //            Avg. X spins =       0.00E+00
(PID.TID 0000.0001) //         No. Y exchanges =              0
(PID.TID 0000.0001) //            Max. Y spins =              0
(PID.TID 0000.0001) //            Min. Y spins =     1000000000
(PID.TID 0000.0001) //          Total. Y spins =              0
(PID.TID 0000.0001) //            Avg. Y spins =       0.00E+00
(PID.TID 0000.0001) // o Tile number: 000095
(PID.TID 0000.0001) //         No. X exchanges =              0
(PID.TID 0000.0001) //            Max. X spins =              0
(PID.TID 0000.0001) //            Min. X spins =     1000000000
(PID.TID 0000.0001) //          Total. X spins =              0
(PID.TID 0000.0001) //            Avg. X spins =       0.00E+00
(PID.TID 0000.0001) //         No. Y exchanges =              0
(PID.TID 0000.0001) //            Max. Y spins =              0
(PID.TID 0000.0001) //            Min. Y spins =     1000000000
(PID.TID 0000.0001) //          Total. Y spins =              0
(PID.TID 0000.0001) //            Avg. Y spins =       0.00E+00
(PID.TID 0000.0001) // o Tile number: 000096
(PID.TID 0000.0001) //         No. X exchanges =              0
(PID.TID 0000.0001) //            Max. X spins =              0
(PID.TID 0000.0001) //            Min. X spins =     1000000000
(PID.TID 0000.0001) //          Total. X spins =              0
(PID.TID 0000.0001) //            Avg. X spins =       0.00E+00
(PID.TID 0000.0001) //         No. Y exchanges =              0
(PID.TID 0000.0001) //            Max. Y spins =              0
(PID.TID 0000.0001) //            Min. Y spins =     1000000000
(PID.TID 0000.0001) //          Total. Y spins =              0
(PID.TID 0000.0001) //            Avg. Y spins =       0.00E+00
(PID.TID 0000.0001) // o Tile number: 000097
(PID.TID 0000.0001) //         No. X exchanges =              0
(PID.TID 0000.0001) //            Max. X spins =              0
(PID.TID 0000.0001) //            Min. X spins =     1000000000
(PID.TID 0000.0001) //          Total. X spins =              0
(PID.TID 0000.0001) //            Avg. X spins =       0.00E+00
(PID.TID 0000.0001) //         No. Y exchanges =              0
(PID.TID 0000.0001) //            Max. Y spins =              0
(PID.TID 0000.0001) //            Min. Y spins =     1000000000
(PID.TID 0000.0001) //          Total. Y spins =              0
(PID.TID 0000.0001) //            Avg. Y spins =       0.00E+00
(PID.TID 0000.0001) // o Tile number: 000098
(PID.TID 0000.0001) //         No. X exchanges =              0
(PID.TID 0000.0001) //            Max. X spins =              0
(PID.TID 0000.0001) //            Min. X spins =     1000000000
(PID.TID 0000.0001) //          Total. X spins =              0
(PID.TID 0000.0001) //            Avg. X spins =       0.00E+00
(PID.TID 0000.0001) //         No. Y exchanges =              0
(PID.TID 0000.0001) //            Max. Y spins =              0
(PID.TID 0000.0001) //            Min. Y spins =     1000000000
(PID.TID 0000.0001) //          Total. Y spins =              0
(PID.TID 0000.0001) //            Avg. Y spins =       0.00E+00
(PID.TID 0000.0001) // o Tile number: 000099
(PID.TID 0000.0001) //         No. X exchanges =              0
(PID.TID 0000.0001) //            Max. X spins =              0
(PID.TID 0000.0001) //            Min. X spins =     1000000000
(PID.TID 0000.0001) //          Total. X spins =              0
(PID.TID 0000.0001) //            Avg. X spins =       0.00E+00
(PID.TID 0000.0001) //         No. Y exchanges =              0
(PID.TID 0000.0001) //            Max. Y spins =              0
(PID.TID 0000.0001) //            Min. Y spins =     1000000000
(PID.TID 0000.0001) //          Total. Y spins =              0
(PID.TID 0000.0001) //            Avg. Y spins =       0.00E+00
(PID.TID 0000.0001) // o Tile number: 000100
(PID.TID 0000.0001) //         No. X exchanges =              0
(PID.TID 0000.0001) //            Max. X spins =              0
(PID.TID 0000.0001) //            Min. X spins =     1000000000
(PID.TID 0000.0001) //          Total. X spins =              0
(PID.TID 0000.0001) //            Avg. X spins =       0.00E+00
(PID.TID 0000.0001) //         No. Y exchanges =              0
(PID.TID 0000.0001) //            Max. Y spins =              0
(PID.TID 0000.0001) //            Min. Y spins =     1000000000
(PID.TID 0000.0001) //          Total. Y spins =              0
(PID.TID 0000.0001) //            Avg. Y spins =       0.00E+00
(PID.TID 0000.0001) // o Tile number: 000101
(PID.TID 0000.0001) //         No. X exchanges =              0
(PID.TID 0000.0001) //            Max. X spins =              0
(PID.TID 0000.0001) //            Min. X spins =     1000000000
(PID.TID 0000.0001) //          Total. X spins =              0
(PID.TID 0000.0001) //            Avg. X spins =       0.00E+00
(PID.TID 0000.0001) //         No. Y exchanges =              0
(PID.TID 0000.0001) //            Max. Y spins =              0
(PID.TID 0000.0001) //            Min. Y spins =     1000000000
(PID.TID 0000.0001) //          Total. Y spins =              0
(PID.TID 0000.0001) //            Avg. Y spins =       0.00E+00
(PID.TID 0000.0001) // o Tile number: 000102
(PID.TID 0000.0001) //         No. X exchanges =              0
(PID.TID 0000.0001) //            Max. X spins =              0
(PID.TID 0000.0001) //            Min. X spins =     1000000000
(PID.TID 0000.0001) //          Total. X spins =              0
(PID.TID 0000.0001) //            Avg. X spins =       0.00E+00
(PID.TID 0000.0001) //         No. Y exchanges =              0
(PID.TID 0000.0001) //            Max. Y spins =              0
(PID.TID 0000.0001) //            Min. Y spins =     1000000000
(PID.TID 0000.0001) //          Total. Y spins =              0
(PID.TID 0000.0001) //            Avg. Y spins =       0.00E+00
(PID.TID 0000.0001) // o Tile number: 000103
(PID.TID 0000.0001) //         No. X exchanges =              0
(PID.TID 0000.0001) //            Max. X spins =              0
(PID.TID 0000.0001) //            Min. X spins =     1000000000
(PID.TID 0000.0001) //          Total. X spins =              0
(PID.TID 0000.0001) //            Avg. X spins =       0.00E+00
(PID.TID 0000.0001) //         No. Y exchanges =              0
(PID.TID 0000.0001) //            Max. Y spins =              0
(PID.TID 0000.0001) //            Min. Y spins =     1000000000
(PID.TID 0000.0001) //          Total. Y spins =              0
(PID.TID 0000.0001) //            Avg. Y spins =       0.00E+00
(PID.TID 0000.0001) // o Tile number: 000104
(PID.TID 0000.0001) //         No. X exchanges =              0
(PID.TID 0000.0001) //            Max. X spins =              0
(PID.TID 0000.0001) //            Min. X spins =     1000000000
(PID.TID 0000.0001) //          Total. X spins =              0
(PID.TID 0000.0001) //            Avg. X spins =       0.00E+00
(PID.TID 0000.0001) //         No. Y exchanges =              0
(PID.TID 0000.0001) //            Max. Y spins =              0
(PID.TID 0000.0001) //            Min. Y spins =     1000000000
(PID.TID 0000.0001) //          Total. Y spins =              0
(PID.TID 0000.0001) //            Avg. Y spins =       0.00E+00
(PID.TID 0000.0001) // o Tile number: 000105
(PID.TID 0000.0001) //         No. X exchanges =              0
(PID.TID 0000.0001) //            Max. X spins =              0
(PID.TID 0000.0001) //            Min. X spins =     1000000000
(PID.TID 0000.0001) //          Total. X spins =              0
(PID.TID 0000.0001) //            Avg. X spins =       0.00E+00
(PID.TID 0000.0001) //         No. Y exchanges =              0
(PID.TID 0000.0001) //            Max. Y spins =              0
(PID.TID 0000.0001) //            Min. Y spins =     1000000000
(PID.TID 0000.0001) //          Total. Y spins =              0
(PID.TID 0000.0001) //            Avg. Y spins =       0.00E+00
(PID.TID 0000.0001) // o Tile number: 000106
(PID.TID 0000.0001) //         No. X exchanges =              0
(PID.TID 0000.0001) //            Max. X spins =              0
(PID.TID 0000.0001) //            Min. X spins =     1000000000
(PID.TID 0000.0001) //          Total. X spins =              0
(PID.TID 0000.0001) //            Avg. X spins =       0.00E+00
(PID.TID 0000.0001) //         No. Y exchanges =              0
(PID.TID 0000.0001) //            Max. Y spins =              0
(PID.TID 0000.0001) //            Min. Y spins =     1000000000
(PID.TID 0000.0001) //          Total. Y spins =              0
(PID.TID 0000.0001) //            Avg. Y spins =       0.00E+00
(PID.TID 0000.0001) // o Tile number: 000107
(PID.TID 0000.0001) //         No. X exchanges =              0
(PID.TID 0000.0001) //            Max. X spins =              0
(PID.TID 0000.0001) //            Min. X spins =     1000000000
(PID.TID 0000.0001) //          Total. X spins =              0
(PID.TID 0000.0001) //            Avg. X spins =       0.00E+00
(PID.TID 0000.0001) //         No. Y exchanges =              0
(PID.TID 0000.0001) //            Max. Y spins =              0
(PID.TID 0000.0001) //            Min. Y spins =     1000000000
(PID.TID 0000.0001) //          Total. Y spins =              0
(PID.TID 0000.0001) //            Avg. Y spins =       0.00E+00
(PID.TID 0000.0001) // o Tile number: 000108
(PID.TID 0000.0001) //         No. X exchanges =              0
(PID.TID 0000.0001) //            Max. X spins =              0
(PID.TID 0000.0001) //            Min. X spins =     1000000000
(PID.TID 0000.0001) //          Total. X spins =              0
(PID.TID 0000.0001) //            Avg. X spins =       0.00E+00
(PID.TID 0000.0001) //         No. Y exchanges =              0
(PID.TID 0000.0001) //            Max. Y spins =              0
(PID.TID 0000.0001) //            Min. Y spins =     1000000000
(PID.TID 0000.0001) //          Total. Y spins =              0
(PID.TID 0000.0001) //            Avg. Y spins =       0.00E+00
(PID.TID 0000.0001) // o Tile number: 000109
(PID.TID 0000.0001) //         No. X exchanges =              0
(PID.TID 0000.0001) //            Max. X spins =              0
(PID.TID 0000.0001) //            Min. X spins =     1000000000
(PID.TID 0000.0001) //          Total. X spins =              0
(PID.TID 0000.0001) //            Avg. X spins =       0.00E+00
(PID.TID 0000.0001) //         No. Y exchanges =              0
(PID.TID 0000.0001) //            Max. Y spins =              0
(PID.TID 0000.0001) //            Min. Y spins =     1000000000
(PID.TID 0000.0001) //          Total. Y spins =              0
(PID.TID 0000.0001) //            Avg. Y spins =       0.00E+00
(PID.TID 0000.0001) // o Tile number: 000110
(PID.TID 0000.0001) //         No. X exchanges =              0
(PID.TID 0000.0001) //            Max. X spins =              0
(PID.TID 0000.0001) //            Min. X spins =     1000000000
(PID.TID 0000.0001) //          Total. X spins =              0
(PID.TID 0000.0001) //            Avg. X spins =       0.00E+00
(PID.TID 0000.0001) //         No. Y exchanges =              0
(PID.TID 0000.0001) //            Max. Y spins =              0
(PID.TID 0000.0001) //            Min. Y spins =     1000000000
(PID.TID 0000.0001) //          Total. Y spins =              0
(PID.TID 0000.0001) //            Avg. Y spins =       0.00E+00
(PID.TID 0000.0001) // o Tile number: 000111
(PID.TID 0000.0001) //         No. X exchanges =              0
(PID.TID 0000.0001) //            Max. X spins =              0
(PID.TID 0000.0001) //            Min. X spins =     1000000000
(PID.TID 0000.0001) //          Total. X spins =              0
(PID.TID 0000.0001) //            Avg. X spins =       0.00E+00
(PID.TID 0000.0001) //         No. Y exchanges =              0
(PID.TID 0000.0001) //            Max. Y spins =              0
(PID.TID 0000.0001) //            Min. Y spins =     1000000000
(PID.TID 0000.0001) //          Total. Y spins =              0
(PID.TID 0000.0001) //            Avg. Y spins =       0.00E+00
(PID.TID 0000.0001) // o Tile number: 000112
(PID.TID 0000.0001) //         No. X exchanges =              0
(PID.TID 0000.0001) //            Max. X spins =              0
(PID.TID 0000.0001) //            Min. X spins =     1000000000
(PID.TID 0000.0001) //          Total. X spins =              0
(PID.TID 0000.0001) //            Avg. X spins =       0.00E+00
(PID.TID 0000.0001) //         No. Y exchanges =              0
(PID.TID 0000.0001) //            Max. Y spins =              0
(PID.TID 0000.0001) //            Min. Y spins =     1000000000
(PID.TID 0000.0001) //          Total. Y spins =              0
(PID.TID 0000.0001) //            Avg. Y spins =       0.00E+00
(PID.TID 0000.0001) // o Tile number: 000113
(PID.TID 0000.0001) //         No. X exchanges =              0
(PID.TID 0000.0001) //            Max. X spins =              0
(PID.TID 0000.0001) //            Min. X spins =     1000000000
(PID.TID 0000.0001) //          Total. X spins =              0
(PID.TID 0000.0001) //            Avg. X spins =       0.00E+00
(PID.TID 0000.0001) //         No. Y exchanges =              0
(PID.TID 0000.0001) //            Max. Y spins =              0
(PID.TID 0000.0001) //            Min. Y spins =     1000000000
(PID.TID 0000.0001) //          Total. Y spins =              0
(PID.TID 0000.0001) //            Avg. Y spins =       0.00E+00
(PID.TID 0000.0001) // o Tile number: 000114
(PID.TID 0000.0001) //         No. X exchanges =              0
(PID.TID 0000.0001) //            Max. X spins =              0
(PID.TID 0000.0001) //            Min. X spins =     1000000000
(PID.TID 0000.0001) //          Total. X spins =              0
(PID.TID 0000.0001) //            Avg. X spins =       0.00E+00
(PID.TID 0000.0001) //         No. Y exchanges =              0
(PID.TID 0000.0001) //            Max. Y spins =              0
(PID.TID 0000.0001) //            Min. Y spins =     1000000000
(PID.TID 0000.0001) //          Total. Y spins =              0
(PID.TID 0000.0001) //            Avg. Y spins =       0.00E+00
(PID.TID 0000.0001) // o Tile number: 000115
(PID.TID 0000.0001) //         No. X exchanges =              0
(PID.TID 0000.0001) //            Max. X spins =              0
(PID.TID 0000.0001) //            Min. X spins =     1000000000
(PID.TID 0000.0001) //          Total. X spins =              0
(PID.TID 0000.0001) //            Avg. X spins =       0.00E+00
(PID.TID 0000.0001) //         No. Y exchanges =              0
(PID.TID 0000.0001) //            Max. Y spins =              0
(PID.TID 0000.0001) //            Min. Y spins =     1000000000
(PID.TID 0000.0001) //          Total. Y spins =              0
(PID.TID 0000.0001) //            Avg. Y spins =       0.00E+00
(PID.TID 0000.0001) // o Tile number: 000116
(PID.TID 0000.0001) //         No. X exchanges =              0
(PID.TID 0000.0001) //            Max. X spins =              0
(PID.TID 0000.0001) //            Min. X spins =     1000000000
(PID.TID 0000.0001) //          Total. X spins =              0
(PID.TID 0000.0001) //            Avg. X spins =       0.00E+00
(PID.TID 0000.0001) //         No. Y exchanges =              0
(PID.TID 0000.0001) //            Max. Y spins =              0
(PID.TID 0000.0001) //            Min. Y spins =     1000000000
(PID.TID 0000.0001) //          Total. Y spins =              0
(PID.TID 0000.0001) //            Avg. Y spins =       0.00E+00
(PID.TID 0000.0001) // o Tile number: 000117
(PID.TID 0000.0001) //         No. X exchanges =              0
(PID.TID 0000.0001) //            Max. X spins =              0
(PID.TID 0000.0001) //            Min. X spins =     1000000000
(PID.TID 0000.0001) //          Total. X spins =              0
(PID.TID 0000.0001) //            Avg. X spins =       0.00E+00
(PID.TID 0000.0001) //         No. Y exchanges =              0
(PID.TID 0000.0001) //            Max. Y spins =              0
(PID.TID 0000.0001) //            Min. Y spins =     1000000000
(PID.TID 0000.0001) //          Total. Y spins =              0
(PID.TID 0000.0001) //            Avg. Y spins =       0.00E+00
(PID.TID 0000.0001) // o Tile number: 000118
(PID.TID 0000.0001) //         No. X exchanges =              0
(PID.TID 0000.0001) //            Max. X spins =              0
(PID.TID 0000.0001) //            Min. X spins =     1000000000
(PID.TID 0000.0001) //          Total. X spins =              0
(PID.TID 0000.0001) //            Avg. X spins =       0.00E+00
(PID.TID 0000.0001) //         No. Y exchanges =              0
(PID.TID 0000.0001) //            Max. Y spins =              0
(PID.TID 0000.0001) //            Min. Y spins =     1000000000
(PID.TID 0000.0001) //          Total. Y spins =              0
(PID.TID 0000.0001) //            Avg. Y spins =       0.00E+00
(PID.TID 0000.0001) // o Tile number: 000119
(PID.TID 0000.0001) //         No. X exchanges =              0
(PID.TID 0000.0001) //            Max. X spins =              0
(PID.TID 0000.0001) //            Min. X spins =     1000000000
(PID.TID 0000.0001) //          Total. X spins =              0
(PID.TID 0000.0001) //            Avg. X spins =       0.00E+00
(PID.TID 0000.0001) //         No. Y exchanges =              0
(PID.TID 0000.0001) //            Max. Y spins =              0
(PID.TID 0000.0001) //            Min. Y spins =     1000000000
(PID.TID 0000.0001) //          Total. Y spins =              0
(PID.TID 0000.0001) //            Avg. Y spins =       0.00E+00
(PID.TID 0000.0001) // o Tile number: 000120
(PID.TID 0000.0001) //         No. X exchanges =              0
(PID.TID 0000.0001) //            Max. X spins =              0
(PID.TID 0000.0001) //            Min. X spins =     1000000000
(PID.TID 0000.0001) //          Total. X spins =              0
(PID.TID 0000.0001) //            Avg. X spins =       0.00E+00
(PID.TID 0000.0001) //         No. Y exchanges =              0
(PID.TID 0000.0001) //            Max. Y spins =              0
(PID.TID 0000.0001) //            Min. Y spins =     1000000000
(PID.TID 0000.0001) //          Total. Y spins =              0
(PID.TID 0000.0001) //            Avg. Y spins =       0.00E+00
(PID.TID 0000.0001) // o Tile number: 000121
(PID.TID 0000.0001) //         No. X exchanges =              0
(PID.TID 0000.0001) //            Max. X spins =              0
(PID.TID 0000.0001) //            Min. X spins =     1000000000
(PID.TID 0000.0001) //          Total. X spins =              0
(PID.TID 0000.0001) //            Avg. X spins =       0.00E+00
(PID.TID 0000.0001) //         No. Y exchanges =              0
(PID.TID 0000.0001) //            Max. Y spins =              0
(PID.TID 0000.0001) //            Min. Y spins =     1000000000
(PID.TID 0000.0001) //          Total. Y spins =              0
(PID.TID 0000.0001) //            Avg. Y spins =       0.00E+00
(PID.TID 0000.0001) // o Tile number: 000122
(PID.TID 0000.0001) //         No. X exchanges =              0
(PID.TID 0000.0001) //            Max. X spins =              0
(PID.TID 0000.0001) //            Min. X spins =     1000000000
(PID.TID 0000.0001) //          Total. X spins =              0
(PID.TID 0000.0001) //            Avg. X spins =       0.00E+00
(PID.TID 0000.0001) //         No. Y exchanges =              0
(PID.TID 0000.0001) //            Max. Y spins =              0
(PID.TID 0000.0001) //            Min. Y spins =     1000000000
(PID.TID 0000.0001) //          Total. Y spins =              0
(PID.TID 0000.0001) //            Avg. Y spins =       0.00E+00
(PID.TID 0000.0001) // o Tile number: 000123
(PID.TID 0000.0001) //         No. X exchanges =              0
(PID.TID 0000.0001) //            Max. X spins =              0
(PID.TID 0000.0001) //            Min. X spins =     1000000000
(PID.TID 0000.0001) //          Total. X spins =              0
(PID.TID 0000.0001) //            Avg. X spins =       0.00E+00
(PID.TID 0000.0001) //         No. Y exchanges =              0
(PID.TID 0000.0001) //            Max. Y spins =              0
(PID.TID 0000.0001) //            Min. Y spins =     1000000000
(PID.TID 0000.0001) //          Total. Y spins =              0
(PID.TID 0000.0001) //            Avg. Y spins =       0.00E+00
(PID.TID 0000.0001) // o Tile number: 000124
(PID.TID 0000.0001) //         No. X exchanges =              0
(PID.TID 0000.0001) //            Max. X spins =              0
(PID.TID 0000.0001) //            Min. X spins =     1000000000
(PID.TID 0000.0001) //          Total. X spins =              0
(PID.TID 0000.0001) //            Avg. X spins =       0.00E+00
(PID.TID 0000.0001) //         No. Y exchanges =              0
(PID.TID 0000.0001) //            Max. Y spins =              0
(PID.TID 0000.0001) //            Min. Y spins =     1000000000
(PID.TID 0000.0001) //          Total. Y spins =              0
(PID.TID 0000.0001) //            Avg. Y spins =       0.00E+00
(PID.TID 0000.0001) // o Tile number: 000125
(PID.TID 0000.0001) //         No. X exchanges =              0
(PID.TID 0000.0001) //            Max. X spins =              0
(PID.TID 0000.0001) //            Min. X spins =     1000000000
(PID.TID 0000.0001) //          Total. X spins =              0
(PID.TID 0000.0001) //            Avg. X spins =       0.00E+00
(PID.TID 0000.0001) //         No. Y exchanges =              0
(PID.TID 0000.0001) //            Max. Y spins =              0
(PID.TID 0000.0001) //            Min. Y spins =     1000000000
(PID.TID 0000.0001) //          Total. Y spins =              0
(PID.TID 0000.0001) //            Avg. Y spins =       0.00E+00
(PID.TID 0000.0001) // o Tile number: 000126
(PID.TID 0000.0001) //         No. X exchanges =              0
(PID.TID 0000.0001) //            Max. X spins =              0
(PID.TID 0000.0001) //            Min. X spins =     1000000000
(PID.TID 0000.0001) //          Total. X spins =              0
(PID.TID 0000.0001) //            Avg. X spins =       0.00E+00
(PID.TID 0000.0001) //         No. Y exchanges =              0
(PID.TID 0000.0001) //            Max. Y spins =              0
(PID.TID 0000.0001) //            Min. Y spins =     1000000000
(PID.TID 0000.0001) //          Total. Y spins =              0
(PID.TID 0000.0001) //            Avg. Y spins =       0.00E+00
(PID.TID 0000.0001) // o Tile number: 000127
(PID.TID 0000.0001) //         No. X exchanges =              0
(PID.TID 0000.0001) //            Max. X spins =              0
(PID.TID 0000.0001) //            Min. X spins =     1000000000
(PID.TID 0000.0001) //          Total. X spins =              0
(PID.TID 0000.0001) //            Avg. X spins =       0.00E+00
(PID.TID 0000.0001) //         No. Y exchanges =              0
(PID.TID 0000.0001) //            Max. Y spins =              0
(PID.TID 0000.0001) //            Min. Y spins =     1000000000
(PID.TID 0000.0001) //          Total. Y spins =              0
(PID.TID 0000.0001) //            Avg. Y spins =       0.00E+00
(PID.TID 0000.0001) // o Tile number: 000128
(PID.TID 0000.0001) //         No. X exchanges =              0
(PID.TID 0000.0001) //            Max. X spins =              0
(PID.TID 0000.0001) //            Min. X spins =     1000000000
(PID.TID 0000.0001) //          Total. X spins =              0
(PID.TID 0000.0001) //            Avg. X spins =       0.00E+00
(PID.TID 0000.0001) //         No. Y exchanges =              0
(PID.TID 0000.0001) //            Max. Y spins =              0
(PID.TID 0000.0001) //            Min. Y spins =     1000000000
(PID.TID 0000.0001) //          Total. Y spins =              0
(PID.TID 0000.0001) //            Avg. Y spins =       0.00E+00
(PID.TID 0000.0001) // o Tile number: 000129
(PID.TID 0000.0001) //         No. X exchanges =              0
(PID.TID 0000.0001) //            Max. X spins =              0
(PID.TID 0000.0001) //            Min. X spins =     1000000000
(PID.TID 0000.0001) //          Total. X spins =              0
(PID.TID 0000.0001) //            Avg. X spins =       0.00E+00
(PID.TID 0000.0001) //         No. Y exchanges =              0
(PID.TID 0000.0001) //            Max. Y spins =              0
(PID.TID 0000.0001) //            Min. Y spins =     1000000000
(PID.TID 0000.0001) //          Total. Y spins =              0
(PID.TID 0000.0001) //            Avg. Y spins =       0.00E+00
(PID.TID 0000.0001) // o Tile number: 000130
(PID.TID 0000.0001) //         No. X exchanges =              0
(PID.TID 0000.0001) //            Max. X spins =              0
(PID.TID 0000.0001) //            Min. X spins =     1000000000
(PID.TID 0000.0001) //          Total. X spins =              0
(PID.TID 0000.0001) //            Avg. X spins =       0.00E+00
(PID.TID 0000.0001) //         No. Y exchanges =              0
(PID.TID 0000.0001) //            Max. Y spins =              0
(PID.TID 0000.0001) //            Min. Y spins =     1000000000
(PID.TID 0000.0001) //          Total. Y spins =              0
(PID.TID 0000.0001) //            Avg. Y spins =       0.00E+00
(PID.TID 0000.0001) // o Tile number: 000131
(PID.TID 0000.0001) //         No. X exchanges =              0
(PID.TID 0000.0001) //            Max. X spins =              0
(PID.TID 0000.0001) //            Min. X spins =     1000000000
(PID.TID 0000.0001) //          Total. X spins =              0
(PID.TID 0000.0001) //            Avg. X spins =       0.00E+00
(PID.TID 0000.0001) //         No. Y exchanges =              0
(PID.TID 0000.0001) //            Max. Y spins =              0
(PID.TID 0000.0001) //            Min. Y spins =     1000000000
(PID.TID 0000.0001) //          Total. Y spins =              0
(PID.TID 0000.0001) //            Avg. Y spins =       0.00E+00
(PID.TID 0000.0001) // o Tile number: 000132
(PID.TID 0000.0001) //         No. X exchanges =              0
(PID.TID 0000.0001) //            Max. X spins =              0
(PID.TID 0000.0001) //            Min. X spins =     1000000000
(PID.TID 0000.0001) //          Total. X spins =              0
(PID.TID 0000.0001) //            Avg. X spins =       0.00E+00
(PID.TID 0000.0001) //         No. Y exchanges =              0
(PID.TID 0000.0001) //            Max. Y spins =              0
(PID.TID 0000.0001) //            Min. Y spins =     1000000000
(PID.TID 0000.0001) //          Total. Y spins =              0
(PID.TID 0000.0001) //            Avg. Y spins =       0.00E+00
(PID.TID 0000.0001) // o Tile number: 000133
(PID.TID 0000.0001) //         No. X exchanges =              0
(PID.TID 0000.0001) //            Max. X spins =              0
(PID.TID 0000.0001) //            Min. X spins =     1000000000
(PID.TID 0000.0001) //          Total. X spins =              0
(PID.TID 0000.0001) //            Avg. X spins =       0.00E+00
(PID.TID 0000.0001) //         No. Y exchanges =              0
(PID.TID 0000.0001) //            Max. Y spins =              0
(PID.TID 0000.0001) //            Min. Y spins =     1000000000
(PID.TID 0000.0001) //          Total. Y spins =              0
(PID.TID 0000.0001) //            Avg. Y spins =       0.00E+00
(PID.TID 0000.0001) // o Tile number: 000134
(PID.TID 0000.0001) //         No. X exchanges =              0
(PID.TID 0000.0001) //            Max. X spins =              0
(PID.TID 0000.0001) //            Min. X spins =     1000000000
(PID.TID 0000.0001) //          Total. X spins =              0
(PID.TID 0000.0001) //            Avg. X spins =       0.00E+00
(PID.TID 0000.0001) //         No. Y exchanges =              0
(PID.TID 0000.0001) //            Max. Y spins =              0
(PID.TID 0000.0001) //            Min. Y spins =     1000000000
(PID.TID 0000.0001) //          Total. Y spins =              0
(PID.TID 0000.0001) //            Avg. Y spins =       0.00E+00
(PID.TID 0000.0001) // o Tile number: 000135
(PID.TID 0000.0001) //         No. X exchanges =              0
(PID.TID 0000.0001) //            Max. X spins =              0
(PID.TID 0000.0001) //            Min. X spins =     1000000000
(PID.TID 0000.0001) //          Total. X spins =              0
(PID.TID 0000.0001) //            Avg. X spins =       0.00E+00
(PID.TID 0000.0001) //         No. Y exchanges =              0
(PID.TID 0000.0001) //            Max. Y spins =              0
(PID.TID 0000.0001) //            Min. Y spins =     1000000000
(PID.TID 0000.0001) //          Total. Y spins =              0
(PID.TID 0000.0001) //            Avg. Y spins =       0.00E+00
(PID.TID 0000.0001) // o Tile number: 000136
(PID.TID 0000.0001) //         No. X exchanges =              0
(PID.TID 0000.0001) //            Max. X spins =              0
(PID.TID 0000.0001) //            Min. X spins =     1000000000
(PID.TID 0000.0001) //          Total. X spins =              0
(PID.TID 0000.0001) //            Avg. X spins =       0.00E+00
(PID.TID 0000.0001) //         No. Y exchanges =              0
(PID.TID 0000.0001) //            Max. Y spins =              0
(PID.TID 0000.0001) //            Min. Y spins =     1000000000
(PID.TID 0000.0001) //          Total. Y spins =              0
(PID.TID 0000.0001) //            Avg. Y spins =       0.00E+00
(PID.TID 0000.0001) // o Tile number: 000137
(PID.TID 0000.0001) //         No. X exchanges =              0
(PID.TID 0000.0001) //            Max. X spins =              0
(PID.TID 0000.0001) //            Min. X spins =     1000000000
(PID.TID 0000.0001) //          Total. X spins =              0
(PID.TID 0000.0001) //            Avg. X spins =       0.00E+00
(PID.TID 0000.0001) //         No. Y exchanges =              0
(PID.TID 0000.0001) //            Max. Y spins =              0
(PID.TID 0000.0001) //            Min. Y spins =     1000000000
(PID.TID 0000.0001) //          Total. Y spins =              0
(PID.TID 0000.0001) //            Avg. Y spins =       0.00E+00
(PID.TID 0000.0001) // o Tile number: 000138
(PID.TID 0000.0001) //         No. X exchanges =              0
(PID.TID 0000.0001) //            Max. X spins =              0
(PID.TID 0000.0001) //            Min. X spins =     1000000000
(PID.TID 0000.0001) //          Total. X spins =              0
(PID.TID 0000.0001) //            Avg. X spins =       0.00E+00
(PID.TID 0000.0001) //         No. Y exchanges =              0
(PID.TID 0000.0001) //            Max. Y spins =              0
(PID.TID 0000.0001) //            Min. Y spins =     1000000000
(PID.TID 0000.0001) //          Total. Y spins =              0
(PID.TID 0000.0001) //            Avg. Y spins =       0.00E+00
(PID.TID 0000.0001) // o Tile number: 000139
(PID.TID 0000.0001) //         No. X exchanges =              0
(PID.TID 0000.0001) //            Max. X spins =              0
(PID.TID 0000.0001) //            Min. X spins =     1000000000
(PID.TID 0000.0001) //          Total. X spins =              0
(PID.TID 0000.0001) //            Avg. X spins =       0.00E+00
(PID.TID 0000.0001) //         No. Y exchanges =              0
(PID.TID 0000.0001) //            Max. Y spins =              0
(PID.TID 0000.0001) //            Min. Y spins =     1000000000
(PID.TID 0000.0001) //          Total. Y spins =              0
(PID.TID 0000.0001) //            Avg. Y spins =       0.00E+00
(PID.TID 0000.0001) // o Tile number: 000140
(PID.TID 0000.0001) //         No. X exchanges =              0
(PID.TID 0000.0001) //            Max. X spins =              0
(PID.TID 0000.0001) //            Min. X spins =     1000000000
(PID.TID 0000.0001) //          Total. X spins =              0
(PID.TID 0000.0001) //            Avg. X spins =       0.00E+00
(PID.TID 0000.0001) //         No. Y exchanges =              0
(PID.TID 0000.0001) //            Max. Y spins =              0
(PID.TID 0000.0001) //            Min. Y spins =     1000000000
(PID.TID 0000.0001) //          Total. Y spins =              0
(PID.TID 0000.0001) //            Avg. Y spins =       0.00E+00
(PID.TID 0000.0001) // o Tile number: 000141
(PID.TID 0000.0001) //         No. X exchanges =              0
(PID.TID 0000.0001) //            Max. X spins =              0
(PID.TID 0000.0001) //            Min. X spins =     1000000000
(PID.TID 0000.0001) //          Total. X spins =              0
(PID.TID 0000.0001) //            Avg. X spins =       0.00E+00
(PID.TID 0000.0001) //         No. Y exchanges =              0
(PID.TID 0000.0001) //            Max. Y spins =              0
(PID.TID 0000.0001) //            Min. Y spins =     1000000000
(PID.TID 0000.0001) //          Total. Y spins =              0
(PID.TID 0000.0001) //            Avg. Y spins =       0.00E+00
(PID.TID 0000.0001) // o Tile number: 000142
(PID.TID 0000.0001) //         No. X exchanges =              0
(PID.TID 0000.0001) //            Max. X spins =              0
(PID.TID 0000.0001) //            Min. X spins =     1000000000
(PID.TID 0000.0001) //          Total. X spins =              0
(PID.TID 0000.0001) //            Avg. X spins =       0.00E+00
(PID.TID 0000.0001) //         No. Y exchanges =              0
(PID.TID 0000.0001) //            Max. Y spins =              0
(PID.TID 0000.0001) //            Min. Y spins =     1000000000
(PID.TID 0000.0001) //          Total. Y spins =              0
(PID.TID 0000.0001) //            Avg. Y spins =       0.00E+00
(PID.TID 0000.0001) // o Tile number: 000143
(PID.TID 0000.0001) //         No. X exchanges =              0
(PID.TID 0000.0001) //            Max. X spins =              0
(PID.TID 0000.0001) //            Min. X spins =     1000000000
(PID.TID 0000.0001) //          Total. X spins =              0
(PID.TID 0000.0001) //            Avg. X spins =       0.00E+00
(PID.TID 0000.0001) //         No. Y exchanges =              0
(PID.TID 0000.0001) //            Max. Y spins =              0
(PID.TID 0000.0001) //            Min. Y spins =     1000000000
(PID.TID 0000.0001) //          Total. Y spins =              0
(PID.TID 0000.0001) //            Avg. Y spins =       0.00E+00
(PID.TID 0000.0001) // o Tile number: 000144
(PID.TID 0000.0001) //         No. X exchanges =              0
(PID.TID 0000.0001) //            Max. X spins =              0
(PID.TID 0000.0001) //            Min. X spins =     1000000000
(PID.TID 0000.0001) //          Total. X spins =              0
(PID.TID 0000.0001) //            Avg. X spins =       0.00E+00
(PID.TID 0000.0001) //         No. Y exchanges =              0
(PID.TID 0000.0001) //            Max. Y spins =              0
(PID.TID 0000.0001) //            Min. Y spins =     1000000000
(PID.TID 0000.0001) //          Total. Y spins =              0
(PID.TID 0000.0001) //            Avg. Y spins =       0.00E+00
(PID.TID 0000.0001) // o Tile number: 000145
(PID.TID 0000.0001) //         No. X exchanges =              0
(PID.TID 0000.0001) //            Max. X spins =              0
(PID.TID 0000.0001) //            Min. X spins =     1000000000
(PID.TID 0000.0001) //          Total. X spins =              0
(PID.TID 0000.0001) //            Avg. X spins =       0.00E+00
(PID.TID 0000.0001) //         No. Y exchanges =              0
(PID.TID 0000.0001) //            Max. Y spins =              0
(PID.TID 0000.0001) //            Min. Y spins =     1000000000
(PID.TID 0000.0001) //          Total. Y spins =              0
(PID.TID 0000.0001) //            Avg. Y spins =       0.00E+00
(PID.TID 0000.0001) // o Tile number: 000146
(PID.TID 0000.0001) //         No. X exchanges =              0
(PID.TID 0000.0001) //            Max. X spins =              0
(PID.TID 0000.0001) //            Min. X spins =     1000000000
(PID.TID 0000.0001) //          Total. X spins =              0
(PID.TID 0000.0001) //            Avg. X spins =       0.00E+00
(PID.TID 0000.0001) //         No. Y exchanges =              0
(PID.TID 0000.0001) //            Max. Y spins =              0
(PID.TID 0000.0001) //            Min. Y spins =     1000000000
(PID.TID 0000.0001) //          Total. Y spins =              0
(PID.TID 0000.0001) //            Avg. Y spins =       0.00E+00
(PID.TID 0000.0001) // o Tile number: 000147
(PID.TID 0000.0001) //         No. X exchanges =              0
(PID.TID 0000.0001) //            Max. X spins =              0
(PID.TID 0000.0001) //            Min. X spins =     1000000000
(PID.TID 0000.0001) //          Total. X spins =              0
(PID.TID 0000.0001) //            Avg. X spins =       0.00E+00
(PID.TID 0000.0001) //         No. Y exchanges =              0
(PID.TID 0000.0001) //            Max. Y spins =              0
(PID.TID 0000.0001) //            Min. Y spins =     1000000000
(PID.TID 0000.0001) //          Total. Y spins =              0
(PID.TID 0000.0001) //            Avg. Y spins =       0.00E+00
(PID.TID 0000.0001) // o Tile number: 000148
(PID.TID 0000.0001) //         No. X exchanges =              0
(PID.TID 0000.0001) //            Max. X spins =              0
(PID.TID 0000.0001) //            Min. X spins =     1000000000
(PID.TID 0000.0001) //          Total. X spins =              0
(PID.TID 0000.0001) //            Avg. X spins =       0.00E+00
(PID.TID 0000.0001) //         No. Y exchanges =              0
(PID.TID 0000.0001) //            Max. Y spins =              0
(PID.TID 0000.0001) //            Min. Y spins =     1000000000
(PID.TID 0000.0001) //          Total. Y spins =              0
(PID.TID 0000.0001) //            Avg. Y spins =       0.00E+00
(PID.TID 0000.0001) // o Tile number: 000149
(PID.TID 0000.0001) //         No. X exchanges =              0
(PID.TID 0000.0001) //            Max. X spins =              0
(PID.TID 0000.0001) //            Min. X spins =     1000000000
(PID.TID 0000.0001) //          Total. X spins =              0
(PID.TID 0000.0001) //            Avg. X spins =       0.00E+00
(PID.TID 0000.0001) //         No. Y exchanges =              0
(PID.TID 0000.0001) //            Max. Y spins =              0
(PID.TID 0000.0001) //            Min. Y spins =     1000000000
(PID.TID 0000.0001) //          Total. Y spins =              0
(PID.TID 0000.0001) //            Avg. Y spins =       0.00E+00
(PID.TID 0000.0001) // o Tile number: 000150
(PID.TID 0000.0001) //         No. X exchanges =              0
(PID.TID 0000.0001) //            Max. X spins =              0
(PID.TID 0000.0001) //            Min. X spins =     1000000000
(PID.TID 0000.0001) //          Total. X spins =              0
(PID.TID 0000.0001) //            Avg. X spins =       0.00E+00
(PID.TID 0000.0001) //         No. Y exchanges =              0
(PID.TID 0000.0001) //            Max. Y spins =              0
(PID.TID 0000.0001) //            Min. Y spins =     1000000000
(PID.TID 0000.0001) //          Total. Y spins =              0
(PID.TID 0000.0001) //            Avg. Y spins =       0.00E+00
(PID.TID 0000.0001) // o Tile number: 000151
(PID.TID 0000.0001) //         No. X exchanges =              0
(PID.TID 0000.0001) //            Max. X spins =              0
(PID.TID 0000.0001) //            Min. X spins =     1000000000
(PID.TID 0000.0001) //          Total. X spins =              0
(PID.TID 0000.0001) //            Avg. X spins =       0.00E+00
(PID.TID 0000.0001) //         No. Y exchanges =              0
(PID.TID 0000.0001) //            Max. Y spins =              0
(PID.TID 0000.0001) //            Min. Y spins =     1000000000
(PID.TID 0000.0001) //          Total. Y spins =              0
(PID.TID 0000.0001) //            Avg. Y spins =       0.00E+00
(PID.TID 0000.0001) // o Tile number: 000152
(PID.TID 0000.0001) //         No. X exchanges =              0
(PID.TID 0000.0001) //            Max. X spins =              0
(PID.TID 0000.0001) //            Min. X spins =     1000000000
(PID.TID 0000.0001) //          Total. X spins =              0
(PID.TID 0000.0001) //            Avg. X spins =       0.00E+00
(PID.TID 0000.0001) //         No. Y exchanges =              0
(PID.TID 0000.0001) //            Max. Y spins =              0
(PID.TID 0000.0001) //            Min. Y spins =     1000000000
(PID.TID 0000.0001) //          Total. Y spins =              0
(PID.TID 0000.0001) //            Avg. Y spins =       0.00E+00
(PID.TID 0000.0001) // o Tile number: 000153
(PID.TID 0000.0001) //         No. X exchanges =              0
(PID.TID 0000.0001) //            Max. X spins =              0
(PID.TID 0000.0001) //            Min. X spins =     1000000000
(PID.TID 0000.0001) //          Total. X spins =              0
(PID.TID 0000.0001) //            Avg. X spins =       0.00E+00
(PID.TID 0000.0001) //         No. Y exchanges =              0
(PID.TID 0000.0001) //            Max. Y spins =              0
(PID.TID 0000.0001) //            Min. Y spins =     1000000000
(PID.TID 0000.0001) //          Total. Y spins =              0
(PID.TID 0000.0001) //            Avg. Y spins =       0.00E+00
(PID.TID 0000.0001) // o Tile number: 000154
(PID.TID 0000.0001) //         No. X exchanges =              0
(PID.TID 0000.0001) //            Max. X spins =              0
(PID.TID 0000.0001) //            Min. X spins =     1000000000
(PID.TID 0000.0001) //          Total. X spins =              0
(PID.TID 0000.0001) //            Avg. X spins =       0.00E+00
(PID.TID 0000.0001) //         No. Y exchanges =              0
(PID.TID 0000.0001) //            Max. Y spins =              0
(PID.TID 0000.0001) //            Min. Y spins =     1000000000
(PID.TID 0000.0001) //          Total. Y spins =              0
(PID.TID 0000.0001) //            Avg. Y spins =       0.00E+00
(PID.TID 0000.0001) // o Tile number: 000155
(PID.TID 0000.0001) //         No. X exchanges =              0
(PID.TID 0000.0001) //            Max. X spins =              0
(PID.TID 0000.0001) //            Min. X spins =     1000000000
(PID.TID 0000.0001) //          Total. X spins =              0
(PID.TID 0000.0001) //            Avg. X spins =       0.00E+00
(PID.TID 0000.0001) //         No. Y exchanges =              0
(PID.TID 0000.0001) //            Max. Y spins =              0
(PID.TID 0000.0001) //            Min. Y spins =     1000000000
(PID.TID 0000.0001) //          Total. Y spins =              0
(PID.TID 0000.0001) //            Avg. Y spins =       0.00E+00
(PID.TID 0000.0001) // o Tile number: 000156
(PID.TID 0000.0001) //         No. X exchanges =              0
(PID.TID 0000.0001) //            Max. X spins =              0
(PID.TID 0000.0001) //            Min. X spins =     1000000000
(PID.TID 0000.0001) //          Total. X spins =              0
(PID.TID 0000.0001) //            Avg. X spins =       0.00E+00
(PID.TID 0000.0001) //         No. Y exchanges =              0
(PID.TID 0000.0001) //            Max. Y spins =              0
(PID.TID 0000.0001) //            Min. Y spins =     1000000000
(PID.TID 0000.0001) //          Total. Y spins =              0
(PID.TID 0000.0001) //            Avg. Y spins =       0.00E+00
(PID.TID 0000.0001) // o Tile number: 000157
(PID.TID 0000.0001) //         No. X exchanges =              0
(PID.TID 0000.0001) //            Max. X spins =              0
(PID.TID 0000.0001) //            Min. X spins =     1000000000
(PID.TID 0000.0001) //          Total. X spins =              0
(PID.TID 0000.0001) //            Avg. X spins =       0.00E+00
(PID.TID 0000.0001) //         No. Y exchanges =              0
(PID.TID 0000.0001) //            Max. Y spins =              0
(PID.TID 0000.0001) //            Min. Y spins =     1000000000
(PID.TID 0000.0001) //          Total. Y spins =              0
(PID.TID 0000.0001) //            Avg. Y spins =       0.00E+00
(PID.TID 0000.0001) // o Tile number: 000158
(PID.TID 0000.0001) //         No. X exchanges =              0
(PID.TID 0000.0001) //            Max. X spins =              0
(PID.TID 0000.0001) //            Min. X spins =     1000000000
(PID.TID 0000.0001) //          Total. X spins =              0
(PID.TID 0000.0001) //            Avg. X spins =       0.00E+00
(PID.TID 0000.0001) //         No. Y exchanges =              0
(PID.TID 0000.0001) //            Max. Y spins =              0
(PID.TID 0000.0001) //            Min. Y spins =     1000000000
(PID.TID 0000.0001) //          Total. Y spins =              0
(PID.TID 0000.0001) //            Avg. Y spins =       0.00E+00
(PID.TID 0000.0001) // o Tile number: 000159
(PID.TID 0000.0001) //         No. X exchanges =              0
(PID.TID 0000.0001) //            Max. X spins =              0
(PID.TID 0000.0001) //            Min. X spins =     1000000000
(PID.TID 0000.0001) //          Total. X spins =              0
(PID.TID 0000.0001) //            Avg. X spins =       0.00E+00
(PID.TID 0000.0001) //         No. Y exchanges =              0
(PID.TID 0000.0001) //            Max. Y spins =              0
(PID.TID 0000.0001) //            Min. Y spins =     1000000000
(PID.TID 0000.0001) //          Total. Y spins =              0
(PID.TID 0000.0001) //            Avg. Y spins =       0.00E+00
(PID.TID 0000.0001) // o Tile number: 000160
(PID.TID 0000.0001) //         No. X exchanges =              0
(PID.TID 0000.0001) //            Max. X spins =              0
(PID.TID 0000.0001) //            Min. X spins =     1000000000
(PID.TID 0000.0001) //          Total. X spins =              0
(PID.TID 0000.0001) //            Avg. X spins =       0.00E+00
(PID.TID 0000.0001) //         No. Y exchanges =              0
(PID.TID 0000.0001) //            Max. Y spins =              0
(PID.TID 0000.0001) //            Min. Y spins =     1000000000
(PID.TID 0000.0001) //          Total. Y spins =              0
(PID.TID 0000.0001) //            Avg. Y spins =       0.00E+00
(PID.TID 0000.0001) // o Tile number: 000161
(PID.TID 0000.0001) //         No. X exchanges =              0
(PID.TID 0000.0001) //            Max. X spins =              0
(PID.TID 0000.0001) //            Min. X spins =     1000000000
(PID.TID 0000.0001) //          Total. X spins =              0
(PID.TID 0000.0001) //            Avg. X spins =       0.00E+00
(PID.TID 0000.0001) //         No. Y exchanges =              0
(PID.TID 0000.0001) //            Max. Y spins =              0
(PID.TID 0000.0001) //            Min. Y spins =     1000000000
(PID.TID 0000.0001) //          Total. Y spins =              0
(PID.TID 0000.0001) //            Avg. Y spins =       0.00E+00
(PID.TID 0000.0001) // o Tile number: 000162
(PID.TID 0000.0001) //         No. X exchanges =              0
(PID.TID 0000.0001) //            Max. X spins =              0
(PID.TID 0000.0001) //            Min. X spins =     1000000000
(PID.TID 0000.0001) //          Total. X spins =              0
(PID.TID 0000.0001) //            Avg. X spins =       0.00E+00
(PID.TID 0000.0001) //         No. Y exchanges =              0
(PID.TID 0000.0001) //            Max. Y spins =              0
(PID.TID 0000.0001) //            Min. Y spins =     1000000000
(PID.TID 0000.0001) //          Total. Y spins =              0
(PID.TID 0000.0001) //            Avg. Y spins =       0.00E+00
(PID.TID 0000.0001) // o Tile number: 000163
(PID.TID 0000.0001) //         No. X exchanges =              0
(PID.TID 0000.0001) //            Max. X spins =              0
(PID.TID 0000.0001) //            Min. X spins =     1000000000
(PID.TID 0000.0001) //          Total. X spins =              0
(PID.TID 0000.0001) //            Avg. X spins =       0.00E+00
(PID.TID 0000.0001) //         No. Y exchanges =              0
(PID.TID 0000.0001) //            Max. Y spins =              0
(PID.TID 0000.0001) //            Min. Y spins =     1000000000
(PID.TID 0000.0001) //          Total. Y spins =              0
(PID.TID 0000.0001) //            Avg. Y spins =       0.00E+00
(PID.TID 0000.0001) // o Tile number: 000164
(PID.TID 0000.0001) //         No. X exchanges =              0
(PID.TID 0000.0001) //            Max. X spins =              0
(PID.TID 0000.0001) //            Min. X spins =     1000000000
(PID.TID 0000.0001) //          Total. X spins =              0
(PID.TID 0000.0001) //            Avg. X spins =       0.00E+00
(PID.TID 0000.0001) //         No. Y exchanges =              0
(PID.TID 0000.0001) //            Max. Y spins =              0
(PID.TID 0000.0001) //            Min. Y spins =     1000000000
(PID.TID 0000.0001) //          Total. Y spins =              0
(PID.TID 0000.0001) //            Avg. Y spins =       0.00E+00
(PID.TID 0000.0001) // o Tile number: 000165
(PID.TID 0000.0001) //         No. X exchanges =              0
(PID.TID 0000.0001) //            Max. X spins =              0
(PID.TID 0000.0001) //            Min. X spins =     1000000000
(PID.TID 0000.0001) //          Total. X spins =              0
(PID.TID 0000.0001) //            Avg. X spins =       0.00E+00
(PID.TID 0000.0001) //         No. Y exchanges =              0
(PID.TID 0000.0001) //            Max. Y spins =              0
(PID.TID 0000.0001) //            Min. Y spins =     1000000000
(PID.TID 0000.0001) //          Total. Y spins =              0
(PID.TID 0000.0001) //            Avg. Y spins =       0.00E+00
(PID.TID 0000.0001) // o Tile number: 000166
(PID.TID 0000.0001) //         No. X exchanges =              0
(PID.TID 0000.0001) //            Max. X spins =              0
(PID.TID 0000.0001) //            Min. X spins =     1000000000
(PID.TID 0000.0001) //          Total. X spins =              0
(PID.TID 0000.0001) //            Avg. X spins =       0.00E+00
(PID.TID 0000.0001) //         No. Y exchanges =              0
(PID.TID 0000.0001) //            Max. Y spins =              0
(PID.TID 0000.0001) //            Min. Y spins =     1000000000
(PID.TID 0000.0001) //          Total. Y spins =              0
(PID.TID 0000.0001) //            Avg. Y spins =       0.00E+00
(PID.TID 0000.0001) // o Tile number: 000167
(PID.TID 0000.0001) //         No. X exchanges =              0
(PID.TID 0000.0001) //            Max. X spins =              0
(PID.TID 0000.0001) //            Min. X spins =     1000000000
(PID.TID 0000.0001) //          Total. X spins =              0
(PID.TID 0000.0001) //            Avg. X spins =       0.00E+00
(PID.TID 0000.0001) //         No. Y exchanges =              0
(PID.TID 0000.0001) //            Max. Y spins =              0
(PID.TID 0000.0001) //            Min. Y spins =     1000000000
(PID.TID 0000.0001) //          Total. Y spins =              0
(PID.TID 0000.0001) //            Avg. Y spins =       0.00E+00
(PID.TID 0000.0001) // o Tile number: 000168
(PID.TID 0000.0001) //         No. X exchanges =              0
(PID.TID 0000.0001) //            Max. X spins =              0
(PID.TID 0000.0001) //            Min. X spins =     1000000000
(PID.TID 0000.0001) //          Total. X spins =              0
(PID.TID 0000.0001) //            Avg. X spins =       0.00E+00
(PID.TID 0000.0001) //         No. Y exchanges =              0
(PID.TID 0000.0001) //            Max. Y spins =              0
(PID.TID 0000.0001) //            Min. Y spins =     1000000000
(PID.TID 0000.0001) //          Total. Y spins =              0
(PID.TID 0000.0001) //            Avg. Y spins =       0.00E+00
(PID.TID 0000.0001) // o Tile number: 000169
(PID.TID 0000.0001) //         No. X exchanges =              0
(PID.TID 0000.0001) //            Max. X spins =              0
(PID.TID 0000.0001) //            Min. X spins =     1000000000
(PID.TID 0000.0001) //          Total. X spins =              0
(PID.TID 0000.0001) //            Avg. X spins =       0.00E+00
(PID.TID 0000.0001) //         No. Y exchanges =              0
(PID.TID 0000.0001) //            Max. Y spins =              0
(PID.TID 0000.0001) //            Min. Y spins =     1000000000
(PID.TID 0000.0001) //          Total. Y spins =              0
(PID.TID 0000.0001) //            Avg. Y spins =       0.00E+00
(PID.TID 0000.0001) // o Tile number: 000170
(PID.TID 0000.0001) //         No. X exchanges =              0
(PID.TID 0000.0001) //            Max. X spins =              0
(PID.TID 0000.0001) //            Min. X spins =     1000000000
(PID.TID 0000.0001) //          Total. X spins =              0
(PID.TID 0000.0001) //            Avg. X spins =       0.00E+00
(PID.TID 0000.0001) //         No. Y exchanges =              0
(PID.TID 0000.0001) //            Max. Y spins =              0
(PID.TID 0000.0001) //            Min. Y spins =     1000000000
(PID.TID 0000.0001) //          Total. Y spins =              0
(PID.TID 0000.0001) //            Avg. Y spins =       0.00E+00
(PID.TID 0000.0001) // o Tile number: 000171
(PID.TID 0000.0001) //         No. X exchanges =              0
(PID.TID 0000.0001) //            Max. X spins =              0
(PID.TID 0000.0001) //            Min. X spins =     1000000000
(PID.TID 0000.0001) //          Total. X spins =              0
(PID.TID 0000.0001) //            Avg. X spins =       0.00E+00
(PID.TID 0000.0001) //         No. Y exchanges =              0
(PID.TID 0000.0001) //            Max. Y spins =              0
(PID.TID 0000.0001) //            Min. Y spins =     1000000000
(PID.TID 0000.0001) //          Total. Y spins =              0
(PID.TID 0000.0001) //            Avg. Y spins =       0.00E+00
(PID.TID 0000.0001) // o Tile number: 000172
(PID.TID 0000.0001) //         No. X exchanges =              0
(PID.TID 0000.0001) //            Max. X spins =              0
(PID.TID 0000.0001) //            Min. X spins =     1000000000
(PID.TID 0000.0001) //          Total. X spins =              0
(PID.TID 0000.0001) //            Avg. X spins =       0.00E+00
(PID.TID 0000.0001) //         No. Y exchanges =              0
(PID.TID 0000.0001) //            Max. Y spins =              0
(PID.TID 0000.0001) //            Min. Y spins =     1000000000
(PID.TID 0000.0001) //          Total. Y spins =              0
(PID.TID 0000.0001) //            Avg. Y spins =       0.00E+00
(PID.TID 0000.0001) // o Tile number: 000173
(PID.TID 0000.0001) //         No. X exchanges =              0
(PID.TID 0000.0001) //            Max. X spins =              0
(PID.TID 0000.0001) //            Min. X spins =     1000000000
(PID.TID 0000.0001) //          Total. X spins =              0
(PID.TID 0000.0001) //            Avg. X spins =       0.00E+00
(PID.TID 0000.0001) //         No. Y exchanges =              0
(PID.TID 0000.0001) //            Max. Y spins =              0
(PID.TID 0000.0001) //            Min. Y spins =     1000000000
(PID.TID 0000.0001) //          Total. Y spins =              0
(PID.TID 0000.0001) //            Avg. Y spins =       0.00E+00
(PID.TID 0000.0001) // o Tile number: 000174
(PID.TID 0000.0001) //         No. X exchanges =              0
(PID.TID 0000.0001) //            Max. X spins =              0
(PID.TID 0000.0001) //            Min. X spins =     1000000000
(PID.TID 0000.0001) //          Total. X spins =              0
(PID.TID 0000.0001) //            Avg. X spins =       0.00E+00
(PID.TID 0000.0001) //         No. Y exchanges =              0
(PID.TID 0000.0001) //            Max. Y spins =              0
(PID.TID 0000.0001) //            Min. Y spins =     1000000000
(PID.TID 0000.0001) //          Total. Y spins =              0
(PID.TID 0000.0001) //            Avg. Y spins =       0.00E+00
(PID.TID 0000.0001) // o Tile number: 000175
(PID.TID 0000.0001) //         No. X exchanges =              0
(PID.TID 0000.0001) //            Max. X spins =              0
(PID.TID 0000.0001) //            Min. X spins =     1000000000
(PID.TID 0000.0001) //          Total. X spins =              0
(PID.TID 0000.0001) //            Avg. X spins =       0.00E+00
(PID.TID 0000.0001) //         No. Y exchanges =              0
(PID.TID 0000.0001) //            Max. Y spins =              0
(PID.TID 0000.0001) //            Min. Y spins =     1000000000
(PID.TID 0000.0001) //          Total. Y spins =              0
(PID.TID 0000.0001) //            Avg. Y spins =       0.00E+00
(PID.TID 0000.0001) // o Tile number: 000176
(PID.TID 0000.0001) //         No. X exchanges =              0
(PID.TID 0000.0001) //            Max. X spins =              0
(PID.TID 0000.0001) //            Min. X spins =     1000000000
(PID.TID 0000.0001) //          Total. X spins =              0
(PID.TID 0000.0001) //            Avg. X spins =       0.00E+00
(PID.TID 0000.0001) //         No. Y exchanges =              0
(PID.TID 0000.0001) //            Max. Y spins =              0
(PID.TID 0000.0001) //            Min. Y spins =     1000000000
(PID.TID 0000.0001) //          Total. Y spins =              0
(PID.TID 0000.0001) //            Avg. Y spins =       0.00E+00
(PID.TID 0000.0001) // o Tile number: 000177
(PID.TID 0000.0001) //         No. X exchanges =              0
(PID.TID 0000.0001) //            Max. X spins =              0
(PID.TID 0000.0001) //            Min. X spins =     1000000000
(PID.TID 0000.0001) //          Total. X spins =              0
(PID.TID 0000.0001) //            Avg. X spins =       0.00E+00
(PID.TID 0000.0001) //         No. Y exchanges =              0
(PID.TID 0000.0001) //            Max. Y spins =              0
(PID.TID 0000.0001) //            Min. Y spins =     1000000000
(PID.TID 0000.0001) //          Total. Y spins =              0
(PID.TID 0000.0001) //            Avg. Y spins =       0.00E+00
(PID.TID 0000.0001) // o Tile number: 000178
(PID.TID 0000.0001) //         No. X exchanges =              0
(PID.TID 0000.0001) //            Max. X spins =              0
(PID.TID 0000.0001) //            Min. X spins =     1000000000
(PID.TID 0000.0001) //          Total. X spins =              0
(PID.TID 0000.0001) //            Avg. X spins =       0.00E+00
(PID.TID 0000.0001) //         No. Y exchanges =              0
(PID.TID 0000.0001) //            Max. Y spins =              0
(PID.TID 0000.0001) //            Min. Y spins =     1000000000
(PID.TID 0000.0001) //          Total. Y spins =              0
(PID.TID 0000.0001) //            Avg. Y spins =       0.00E+00
(PID.TID 0000.0001) // o Tile number: 000179
(PID.TID 0000.0001) //         No. X exchanges =              0
(PID.TID 0000.0001) //            Max. X spins =              0
(PID.TID 0000.0001) //            Min. X spins =     1000000000
(PID.TID 0000.0001) //          Total. X spins =              0
(PID.TID 0000.0001) //            Avg. X spins =       0.00E+00
(PID.TID 0000.0001) //         No. Y exchanges =              0
(PID.TID 0000.0001) //            Max. Y spins =              0
(PID.TID 0000.0001) //            Min. Y spins =     1000000000
(PID.TID 0000.0001) //          Total. Y spins =              0
(PID.TID 0000.0001) //            Avg. Y spins =       0.00E+00
(PID.TID 0000.0001) // o Tile number: 000180
(PID.TID 0000.0001) //         No. X exchanges =              0
(PID.TID 0000.0001) //            Max. X spins =              0
(PID.TID 0000.0001) //            Min. X spins =     1000000000
(PID.TID 0000.0001) //          Total. X spins =              0
(PID.TID 0000.0001) //            Avg. X spins =       0.00E+00
(PID.TID 0000.0001) //         No. Y exchanges =              0
(PID.TID 0000.0001) //            Max. Y spins =              0
(PID.TID 0000.0001) //            Min. Y spins =     1000000000
(PID.TID 0000.0001) //          Total. Y spins =              0
(PID.TID 0000.0001) //            Avg. Y spins =       0.00E+00
(PID.TID 0000.0001) // o Tile number: 000181
(PID.TID 0000.0001) //         No. X exchanges =              0
(PID.TID 0000.0001) //            Max. X spins =              0
(PID.TID 0000.0001) //            Min. X spins =     1000000000
(PID.TID 0000.0001) //          Total. X spins =              0
(PID.TID 0000.0001) //            Avg. X spins =       0.00E+00
(PID.TID 0000.0001) //         No. Y exchanges =              0
(PID.TID 0000.0001) //            Max. Y spins =              0
(PID.TID 0000.0001) //            Min. Y spins =     1000000000
(PID.TID 0000.0001) //          Total. Y spins =              0
(PID.TID 0000.0001) //            Avg. Y spins =       0.00E+00
(PID.TID 0000.0001) // o Tile number: 000182
(PID.TID 0000.0001) //         No. X exchanges =              0
(PID.TID 0000.0001) //            Max. X spins =              0
(PID.TID 0000.0001) //            Min. X spins =     1000000000
(PID.TID 0000.0001) //          Total. X spins =              0
(PID.TID 0000.0001) //            Avg. X spins =       0.00E+00
(PID.TID 0000.0001) //         No. Y exchanges =              0
(PID.TID 0000.0001) //            Max. Y spins =              0
(PID.TID 0000.0001) //            Min. Y spins =     1000000000
(PID.TID 0000.0001) //          Total. Y spins =              0
(PID.TID 0000.0001) //            Avg. Y spins =       0.00E+00
(PID.TID 0000.0001) // o Tile number: 000183
(PID.TID 0000.0001) //         No. X exchanges =              0
(PID.TID 0000.0001) //            Max. X spins =              0
(PID.TID 0000.0001) //            Min. X spins =     1000000000
(PID.TID 0000.0001) //          Total. X spins =              0
(PID.TID 0000.0001) //            Avg. X spins =       0.00E+00
(PID.TID 0000.0001) //         No. Y exchanges =              0
(PID.TID 0000.0001) //            Max. Y spins =              0
(PID.TID 0000.0001) //            Min. Y spins =     1000000000
(PID.TID 0000.0001) //          Total. Y spins =              0
(PID.TID 0000.0001) //            Avg. Y spins =       0.00E+00
(PID.TID 0000.0001) // o Tile number: 000184
(PID.TID 0000.0001) //         No. X exchanges =              0
(PID.TID 0000.0001) //            Max. X spins =              0
(PID.TID 0000.0001) //            Min. X spins =     1000000000
(PID.TID 0000.0001) //          Total. X spins =              0
(PID.TID 0000.0001) //            Avg. X spins =       0.00E+00
(PID.TID 0000.0001) //         No. Y exchanges =              0
(PID.TID 0000.0001) //            Max. Y spins =              0
(PID.TID 0000.0001) //            Min. Y spins =     1000000000
(PID.TID 0000.0001) //          Total. Y spins =              0
(PID.TID 0000.0001) //            Avg. Y spins =       0.00E+00
(PID.TID 0000.0001) // o Tile number: 000185
(PID.TID 0000.0001) //         No. X exchanges =              0
(PID.TID 0000.0001) //            Max. X spins =              0
(PID.TID 0000.0001) //            Min. X spins =     1000000000
(PID.TID 0000.0001) //          Total. X spins =              0
(PID.TID 0000.0001) //            Avg. X spins =       0.00E+00
(PID.TID 0000.0001) //         No. Y exchanges =              0
(PID.TID 0000.0001) //            Max. Y spins =              0
(PID.TID 0000.0001) //            Min. Y spins =     1000000000
(PID.TID 0000.0001) //          Total. Y spins =              0
(PID.TID 0000.0001) //            Avg. Y spins =       0.00E+00
(PID.TID 0000.0001) // o Tile number: 000186
(PID.TID 0000.0001) //         No. X exchanges =              0
(PID.TID 0000.0001) //            Max. X spins =              0
(PID.TID 0000.0001) //            Min. X spins =     1000000000
(PID.TID 0000.0001) //          Total. X spins =              0
(PID.TID 0000.0001) //            Avg. X spins =       0.00E+00
(PID.TID 0000.0001) //         No. Y exchanges =              0
(PID.TID 0000.0001) //            Max. Y spins =              0
(PID.TID 0000.0001) //            Min. Y spins =     1000000000
(PID.TID 0000.0001) //          Total. Y spins =              0
(PID.TID 0000.0001) //            Avg. Y spins =       0.00E+00
(PID.TID 0000.0001) // o Tile number: 000187
(PID.TID 0000.0001) //         No. X exchanges =              0
(PID.TID 0000.0001) //            Max. X spins =              0
(PID.TID 0000.0001) //            Min. X spins =     1000000000
(PID.TID 0000.0001) //          Total. X spins =              0
(PID.TID 0000.0001) //            Avg. X spins =       0.00E+00
(PID.TID 0000.0001) //         No. Y exchanges =              0
(PID.TID 0000.0001) //            Max. Y spins =              0
(PID.TID 0000.0001) //            Min. Y spins =     1000000000
(PID.TID 0000.0001) //          Total. Y spins =              0
(PID.TID 0000.0001) //            Avg. Y spins =       0.00E+00
(PID.TID 0000.0001) // o Tile number: 000188
(PID.TID 0000.0001) //         No. X exchanges =              0
(PID.TID 0000.0001) //            Max. X spins =              0
(PID.TID 0000.0001) //            Min. X spins =     1000000000
(PID.TID 0000.0001) //          Total. X spins =              0
(PID.TID 0000.0001) //            Avg. X spins =       0.00E+00
(PID.TID 0000.0001) //         No. Y exchanges =              0
(PID.TID 0000.0001) //            Max. Y spins =              0
(PID.TID 0000.0001) //            Min. Y spins =     1000000000
(PID.TID 0000.0001) //          Total. Y spins =              0
(PID.TID 0000.0001) //            Avg. Y spins =       0.00E+00
(PID.TID 0000.0001) // o Tile number: 000189
(PID.TID 0000.0001) //         No. X exchanges =              0
(PID.TID 0000.0001) //            Max. X spins =              0
(PID.TID 0000.0001) //            Min. X spins =     1000000000
(PID.TID 0000.0001) //          Total. X spins =              0
(PID.TID 0000.0001) //            Avg. X spins =       0.00E+00
(PID.TID 0000.0001) //         No. Y exchanges =              0
(PID.TID 0000.0001) //            Max. Y spins =              0
(PID.TID 0000.0001) //            Min. Y spins =     1000000000
(PID.TID 0000.0001) //          Total. Y spins =              0
(PID.TID 0000.0001) //            Avg. Y spins =       0.00E+00
(PID.TID 0000.0001) // o Tile number: 000190
(PID.TID 0000.0001) //         No. X exchanges =              0
(PID.TID 0000.0001) //            Max. X spins =              0
(PID.TID 0000.0001) //            Min. X spins =     1000000000
(PID.TID 0000.0001) //          Total. X spins =              0
(PID.TID 0000.0001) //            Avg. X spins =       0.00E+00
(PID.TID 0000.0001) //         No. Y exchanges =              0
(PID.TID 0000.0001) //            Max. Y spins =              0
(PID.TID 0000.0001) //            Min. Y spins =     1000000000
(PID.TID 0000.0001) //          Total. Y spins =              0
(PID.TID 0000.0001) //            Avg. Y spins =       0.00E+00
(PID.TID 0000.0001) // o Tile number: 000191
(PID.TID 0000.0001) //         No. X exchanges =              0
(PID.TID 0000.0001) //            Max. X spins =              0
(PID.TID 0000.0001) //            Min. X spins =     1000000000
(PID.TID 0000.0001) //          Total. X spins =              0
(PID.TID 0000.0001) //            Avg. X spins =       0.00E+00
(PID.TID 0000.0001) //         No. Y exchanges =              0
(PID.TID 0000.0001) //            Max. Y spins =              0
(PID.TID 0000.0001) //            Min. Y spins =     1000000000
(PID.TID 0000.0001) //          Total. Y spins =              0
(PID.TID 0000.0001) //            Avg. Y spins =       0.00E+00
(PID.TID 0000.0001) // o Tile number: 000192
(PID.TID 0000.0001) //         No. X exchanges =              0
(PID.TID 0000.0001) //            Max. X spins =              0
(PID.TID 0000.0001) //            Min. X spins =     1000000000
(PID.TID 0000.0001) //          Total. X spins =              0
(PID.TID 0000.0001) //            Avg. X spins =       0.00E+00
(PID.TID 0000.0001) //         No. Y exchanges =              0
(PID.TID 0000.0001) //            Max. Y spins =              0
(PID.TID 0000.0001) //            Min. Y spins =     1000000000
(PID.TID 0000.0001) //          Total. Y spins =              0
(PID.TID 0000.0001) //            Avg. Y spins =       0.00E+00
(PID.TID 0000.0001) // o Tile number: 000193
(PID.TID 0000.0001) //         No. X exchanges =              0
(PID.TID 0000.0001) //            Max. X spins =              0
(PID.TID 0000.0001) //            Min. X spins =     1000000000
(PID.TID 0000.0001) //          Total. X spins =              0
(PID.TID 0000.0001) //            Avg. X spins =       0.00E+00
(PID.TID 0000.0001) //         No. Y exchanges =              0
(PID.TID 0000.0001) //            Max. Y spins =              0
(PID.TID 0000.0001) //            Min. Y spins =     1000000000
(PID.TID 0000.0001) //          Total. Y spins =              0
(PID.TID 0000.0001) //            Avg. Y spins =       0.00E+00
(PID.TID 0000.0001) // o Tile number: 000194
(PID.TID 0000.0001) //         No. X exchanges =              0
(PID.TID 0000.0001) //            Max. X spins =              0
(PID.TID 0000.0001) //            Min. X spins =     1000000000
(PID.TID 0000.0001) //          Total. X spins =              0
(PID.TID 0000.0001) //            Avg. X spins =       0.00E+00
(PID.TID 0000.0001) //         No. Y exchanges =              0
(PID.TID 0000.0001) //            Max. Y spins =              0
(PID.TID 0000.0001) //            Min. Y spins =     1000000000
(PID.TID 0000.0001) //          Total. Y spins =              0
(PID.TID 0000.0001) //            Avg. Y spins =       0.00E+00
(PID.TID 0000.0001) // o Tile number: 000195
(PID.TID 0000.0001) //         No. X exchanges =              0
(PID.TID 0000.0001) //            Max. X spins =              0
(PID.TID 0000.0001) //            Min. X spins =     1000000000
(PID.TID 0000.0001) //          Total. X spins =              0
(PID.TID 0000.0001) //            Avg. X spins =       0.00E+00
(PID.TID 0000.0001) //         No. Y exchanges =              0
(PID.TID 0000.0001) //            Max. Y spins =              0
(PID.TID 0000.0001) //            Min. Y spins =     1000000000
(PID.TID 0000.0001) //          Total. Y spins =              0
(PID.TID 0000.0001) //            Avg. Y spins =       0.00E+00
(PID.TID 0000.0001) // o Tile number: 000196
(PID.TID 0000.0001) //         No. X exchanges =              0
(PID.TID 0000.0001) //            Max. X spins =              0
(PID.TID 0000.0001) //            Min. X spins =     1000000000
(PID.TID 0000.0001) //          Total. X spins =              0
(PID.TID 0000.0001) //            Avg. X spins =       0.00E+00
(PID.TID 0000.0001) //         No. Y exchanges =              0
(PID.TID 0000.0001) //            Max. Y spins =              0
(PID.TID 0000.0001) //            Min. Y spins =     1000000000
(PID.TID 0000.0001) //          Total. Y spins =              0
(PID.TID 0000.0001) //            Avg. Y spins =       0.00E+00
(PID.TID 0000.0001) // o Tile number: 000197
(PID.TID 0000.0001) //         No. X exchanges =              0
(PID.TID 0000.0001) //            Max. X spins =              0
(PID.TID 0000.0001) //            Min. X spins =     1000000000
(PID.TID 0000.0001) //          Total. X spins =              0
(PID.TID 0000.0001) //            Avg. X spins =       0.00E+00
(PID.TID 0000.0001) //         No. Y exchanges =              0
(PID.TID 0000.0001) //            Max. Y spins =              0
(PID.TID 0000.0001) //            Min. Y spins =     1000000000
(PID.TID 0000.0001) //          Total. Y spins =              0
(PID.TID 0000.0001) //            Avg. Y spins =       0.00E+00
(PID.TID 0000.0001) // o Tile number: 000198
(PID.TID 0000.0001) //         No. X exchanges =              0
(PID.TID 0000.0001) //            Max. X spins =              0
(PID.TID 0000.0001) //            Min. X spins =     1000000000
(PID.TID 0000.0001) //          Total. X spins =              0
(PID.TID 0000.0001) //            Avg. X spins =       0.00E+00
(PID.TID 0000.0001) //         No. Y exchanges =              0
(PID.TID 0000.0001) //            Max. Y spins =              0
(PID.TID 0000.0001) //            Min. Y spins =     1000000000
(PID.TID 0000.0001) //          Total. Y spins =              0
(PID.TID 0000.0001) //            Avg. Y spins =       0.00E+00
(PID.TID 0000.0001) // o Tile number: 000199
(PID.TID 0000.0001) //         No. X exchanges =              0
(PID.TID 0000.0001) //            Max. X spins =              0
(PID.TID 0000.0001) //            Min. X spins =     1000000000
(PID.TID 0000.0001) //          Total. X spins =              0
(PID.TID 0000.0001) //            Avg. X spins =       0.00E+00
(PID.TID 0000.0001) //         No. Y exchanges =              0
(PID.TID 0000.0001) //            Max. Y spins =              0
(PID.TID 0000.0001) //            Min. Y spins =     1000000000
(PID.TID 0000.0001) //          Total. Y spins =              0
(PID.TID 0000.0001) //            Avg. Y spins =       0.00E+00
(PID.TID 0000.0001) // o Tile number: 000200
(PID.TID 0000.0001) //         No. X exchanges =              0
(PID.TID 0000.0001) //            Max. X spins =              0
(PID.TID 0000.0001) //            Min. X spins =     1000000000
(PID.TID 0000.0001) //          Total. X spins =              0
(PID.TID 0000.0001) //            Avg. X spins =       0.00E+00
(PID.TID 0000.0001) //         No. Y exchanges =              0
(PID.TID 0000.0001) //            Max. Y spins =              0
(PID.TID 0000.0001) //            Min. Y spins =     1000000000
(PID.TID 0000.0001) //          Total. Y spins =              0
(PID.TID 0000.0001) //            Avg. Y spins =       0.00E+00
(PID.TID 0000.0001) // o Tile number: 000201
(PID.TID 0000.0001) //         No. X exchanges =              0
(PID.TID 0000.0001) //            Max. X spins =              0
(PID.TID 0000.0001) //            Min. X spins =     1000000000
(PID.TID 0000.0001) //          Total. X spins =              0
(PID.TID 0000.0001) //            Avg. X spins =       0.00E+00
(PID.TID 0000.0001) //         No. Y exchanges =              0
(PID.TID 0000.0001) //            Max. Y spins =              0
(PID.TID 0000.0001) //            Min. Y spins =     1000000000
(PID.TID 0000.0001) //          Total. Y spins =              0
(PID.TID 0000.0001) //            Avg. Y spins =       0.00E+00
(PID.TID 0000.0001) // o Tile number: 000202
(PID.TID 0000.0001) //         No. X exchanges =              0
(PID.TID 0000.0001) //            Max. X spins =              0
(PID.TID 0000.0001) //            Min. X spins =     1000000000
(PID.TID 0000.0001) //          Total. X spins =              0
(PID.TID 0000.0001) //            Avg. X spins =       0.00E+00
(PID.TID 0000.0001) //         No. Y exchanges =              0
(PID.TID 0000.0001) //            Max. Y spins =              0
(PID.TID 0000.0001) //            Min. Y spins =     1000000000
(PID.TID 0000.0001) //          Total. Y spins =              0
(PID.TID 0000.0001) //            Avg. Y spins =       0.00E+00
(PID.TID 0000.0001) // o Tile number: 000203
(PID.TID 0000.0001) //         No. X exchanges =              0
(PID.TID 0000.0001) //            Max. X spins =              0
(PID.TID 0000.0001) //            Min. X spins =     1000000000
(PID.TID 0000.0001) //          Total. X spins =              0
(PID.TID 0000.0001) //            Avg. X spins =       0.00E+00
(PID.TID 0000.0001) //         No. Y exchanges =              0
(PID.TID 0000.0001) //            Max. Y spins =              0
(PID.TID 0000.0001) //            Min. Y spins =     1000000000
(PID.TID 0000.0001) //          Total. Y spins =              0
(PID.TID 0000.0001) //            Avg. Y spins =       0.00E+00
(PID.TID 0000.0001) // o Tile number: 000204
(PID.TID 0000.0001) //         No. X exchanges =              0
(PID.TID 0000.0001) //            Max. X spins =              0
(PID.TID 0000.0001) //            Min. X spins =     1000000000
(PID.TID 0000.0001) //          Total. X spins =              0
(PID.TID 0000.0001) //            Avg. X spins =       0.00E+00
(PID.TID 0000.0001) //         No. Y exchanges =              0
(PID.TID 0000.0001) //            Max. Y spins =              0
(PID.TID 0000.0001) //            Min. Y spins =     1000000000
(PID.TID 0000.0001) //          Total. Y spins =              0
(PID.TID 0000.0001) //            Avg. Y spins =       0.00E+00
(PID.TID 0000.0001) // o Tile number: 000205
(PID.TID 0000.0001) //         No. X exchanges =              0
(PID.TID 0000.0001) //            Max. X spins =              0
(PID.TID 0000.0001) //            Min. X spins =     1000000000
(PID.TID 0000.0001) //          Total. X spins =              0
(PID.TID 0000.0001) //            Avg. X spins =       0.00E+00
(PID.TID 0000.0001) //         No. Y exchanges =              0
(PID.TID 0000.0001) //            Max. Y spins =              0
(PID.TID 0000.0001) //            Min. Y spins =     1000000000
(PID.TID 0000.0001) //          Total. Y spins =              0
(PID.TID 0000.0001) //            Avg. Y spins =       0.00E+00
(PID.TID 0000.0001) // o Tile number: 000206
(PID.TID 0000.0001) //         No. X exchanges =              0
(PID.TID 0000.0001) //            Max. X spins =              0
(PID.TID 0000.0001) //            Min. X spins =     1000000000
(PID.TID 0000.0001) //          Total. X spins =              0
(PID.TID 0000.0001) //            Avg. X spins =       0.00E+00
(PID.TID 0000.0001) //         No. Y exchanges =              0
(PID.TID 0000.0001) //            Max. Y spins =              0
(PID.TID 0000.0001) //            Min. Y spins =     1000000000
(PID.TID 0000.0001) //          Total. Y spins =              0
(PID.TID 0000.0001) //            Avg. Y spins =       0.00E+00
(PID.TID 0000.0001) // o Tile number: 000207
(PID.TID 0000.0001) //         No. X exchanges =              0
(PID.TID 0000.0001) //            Max. X spins =              0
(PID.TID 0000.0001) //            Min. X spins =     1000000000
(PID.TID 0000.0001) //          Total. X spins =              0
(PID.TID 0000.0001) //            Avg. X spins =       0.00E+00
(PID.TID 0000.0001) //         No. Y exchanges =              0
(PID.TID 0000.0001) //            Max. Y spins =              0
(PID.TID 0000.0001) //            Min. Y spins =     1000000000
(PID.TID 0000.0001) //          Total. Y spins =              0
(PID.TID 0000.0001) //            Avg. Y spins =       0.00E+00
(PID.TID 0000.0001) // o Tile number: 000208
(PID.TID 0000.0001) //         No. X exchanges =              0
(PID.TID 0000.0001) //            Max. X spins =              0
(PID.TID 0000.0001) //            Min. X spins =     1000000000
(PID.TID 0000.0001) //          Total. X spins =              0
(PID.TID 0000.0001) //            Avg. X spins =       0.00E+00
(PID.TID 0000.0001) //         No. Y exchanges =              0
(PID.TID 0000.0001) //            Max. Y spins =              0
(PID.TID 0000.0001) //            Min. Y spins =     1000000000
(PID.TID 0000.0001) //          Total. Y spins =              0
(PID.TID 0000.0001) //            Avg. Y spins =       0.00E+00
(PID.TID 0000.0001) // o Tile number: 000209
(PID.TID 0000.0001) //         No. X exchanges =              0
(PID.TID 0000.0001) //            Max. X spins =              0
(PID.TID 0000.0001) //            Min. X spins =     1000000000
(PID.TID 0000.0001) //          Total. X spins =              0
(PID.TID 0000.0001) //            Avg. X spins =       0.00E+00
(PID.TID 0000.0001) //         No. Y exchanges =              0
(PID.TID 0000.0001) //            Max. Y spins =              0
(PID.TID 0000.0001) //            Min. Y spins =     1000000000
(PID.TID 0000.0001) //          Total. Y spins =              0
(PID.TID 0000.0001) //            Avg. Y spins =       0.00E+00
(PID.TID 0000.0001) // o Tile number: 000210
(PID.TID 0000.0001) //         No. X exchanges =              0
(PID.TID 0000.0001) //            Max. X spins =              0
(PID.TID 0000.0001) //            Min. X spins =     1000000000
(PID.TID 0000.0001) //          Total. X spins =              0
(PID.TID 0000.0001) //            Avg. X spins =       0.00E+00
(PID.TID 0000.0001) //         No. Y exchanges =              0
(PID.TID 0000.0001) //            Max. Y spins =              0
(PID.TID 0000.0001) //            Min. Y spins =     1000000000
(PID.TID 0000.0001) //          Total. Y spins =              0
(PID.TID 0000.0001) //            Avg. Y spins =       0.00E+00
(PID.TID 0000.0001) // o Tile number: 000211
(PID.TID 0000.0001) //         No. X exchanges =              0
(PID.TID 0000.0001) //            Max. X spins =              0
(PID.TID 0000.0001) //            Min. X spins =     1000000000
(PID.TID 0000.0001) //          Total. X spins =              0
(PID.TID 0000.0001) //            Avg. X spins =       0.00E+00
(PID.TID 0000.0001) //         No. Y exchanges =              0
(PID.TID 0000.0001) //            Max. Y spins =              0
(PID.TID 0000.0001) //            Min. Y spins =     1000000000
(PID.TID 0000.0001) //          Total. Y spins =              0
(PID.TID 0000.0001) //            Avg. Y spins =       0.00E+00
(PID.TID 0000.0001) // o Tile number: 000212
(PID.TID 0000.0001) //         No. X exchanges =              0
(PID.TID 0000.0001) //            Max. X spins =              0
(PID.TID 0000.0001) //            Min. X spins =     1000000000
(PID.TID 0000.0001) //          Total. X spins =              0
(PID.TID 0000.0001) //            Avg. X spins =       0.00E+00
(PID.TID 0000.0001) //         No. Y exchanges =              0
(PID.TID 0000.0001) //            Max. Y spins =              0
(PID.TID 0000.0001) //            Min. Y spins =     1000000000
(PID.TID 0000.0001) //          Total. Y spins =              0
(PID.TID 0000.0001) //            Avg. Y spins =       0.00E+00
(PID.TID 0000.0001) // o Tile number: 000213
(PID.TID 0000.0001) //         No. X exchanges =              0
(PID.TID 0000.0001) //            Max. X spins =              0
(PID.TID 0000.0001) //            Min. X spins =     1000000000
(PID.TID 0000.0001) //          Total. X spins =              0
(PID.TID 0000.0001) //            Avg. X spins =       0.00E+00
(PID.TID 0000.0001) //         No. Y exchanges =              0
(PID.TID 0000.0001) //            Max. Y spins =              0
(PID.TID 0000.0001) //            Min. Y spins =     1000000000
(PID.TID 0000.0001) //          Total. Y spins =              0
(PID.TID 0000.0001) //            Avg. Y spins =       0.00E+00
(PID.TID 0000.0001) // o Tile number: 000214
(PID.TID 0000.0001) //         No. X exchanges =              0
(PID.TID 0000.0001) //            Max. X spins =              0
(PID.TID 0000.0001) //            Min. X spins =     1000000000
(PID.TID 0000.0001) //          Total. X spins =              0
(PID.TID 0000.0001) //            Avg. X spins =       0.00E+00
(PID.TID 0000.0001) //         No. Y exchanges =              0
(PID.TID 0000.0001) //            Max. Y spins =              0
(PID.TID 0000.0001) //            Min. Y spins =     1000000000
(PID.TID 0000.0001) //          Total. Y spins =              0
(PID.TID 0000.0001) //            Avg. Y spins =       0.00E+00
(PID.TID 0000.0001) // o Tile number: 000215
(PID.TID 0000.0001) //         No. X exchanges =              0
(PID.TID 0000.0001) //            Max. X spins =              0
(PID.TID 0000.0001) //            Min. X spins =     1000000000
(PID.TID 0000.0001) //          Total. X spins =              0
(PID.TID 0000.0001) //            Avg. X spins =       0.00E+00
(PID.TID 0000.0001) //         No. Y exchanges =              0
(PID.TID 0000.0001) //            Max. Y spins =              0
(PID.TID 0000.0001) //            Min. Y spins =     1000000000
(PID.TID 0000.0001) //          Total. Y spins =              0
(PID.TID 0000.0001) //            Avg. Y spins =       0.00E+00
(PID.TID 0000.0001) // o Tile number: 000216
(PID.TID 0000.0001) //         No. X exchanges =              0
(PID.TID 0000.0001) //            Max. X spins =              0
(PID.TID 0000.0001) //            Min. X spins =     1000000000
(PID.TID 0000.0001) //          Total. X spins =              0
(PID.TID 0000.0001) //            Avg. X spins =       0.00E+00
(PID.TID 0000.0001) //         No. Y exchanges =              0
(PID.TID 0000.0001) //            Max. Y spins =              0
(PID.TID 0000.0001) //            Min. Y spins =     1000000000
(PID.TID 0000.0001) //          Total. Y spins =              0
(PID.TID 0000.0001) //            Avg. Y spins =       0.00E+00
(PID.TID 0000.0001) // o Tile number: 000217
(PID.TID 0000.0001) //         No. X exchanges =              0
(PID.TID 0000.0001) //            Max. X spins =              0
(PID.TID 0000.0001) //            Min. X spins =     1000000000
(PID.TID 0000.0001) //          Total. X spins =              0
(PID.TID 0000.0001) //            Avg. X spins =       0.00E+00
(PID.TID 0000.0001) //         No. Y exchanges =              0
(PID.TID 0000.0001) //            Max. Y spins =              0
(PID.TID 0000.0001) //            Min. Y spins =     1000000000
(PID.TID 0000.0001) //          Total. Y spins =              0
(PID.TID 0000.0001) //            Avg. Y spins =       0.00E+00
(PID.TID 0000.0001) // o Tile number: 000218
(PID.TID 0000.0001) //         No. X exchanges =              0
(PID.TID 0000.0001) //            Max. X spins =              0
(PID.TID 0000.0001) //            Min. X spins =     1000000000
(PID.TID 0000.0001) //          Total. X spins =              0
(PID.TID 0000.0001) //            Avg. X spins =       0.00E+00
(PID.TID 0000.0001) //         No. Y exchanges =              0
(PID.TID 0000.0001) //            Max. Y spins =              0
(PID.TID 0000.0001) //            Min. Y spins =     1000000000
(PID.TID 0000.0001) //          Total. Y spins =              0
(PID.TID 0000.0001) //            Avg. Y spins =       0.00E+00
(PID.TID 0000.0001) // o Tile number: 000219
(PID.TID 0000.0001) //         No. X exchanges =              0
(PID.TID 0000.0001) //            Max. X spins =              0
(PID.TID 0000.0001) //            Min. X spins =     1000000000
(PID.TID 0000.0001) //          Total. X spins =              0
(PID.TID 0000.0001) //            Avg. X spins =       0.00E+00
(PID.TID 0000.0001) //         No. Y exchanges =              0
(PID.TID 0000.0001) //            Max. Y spins =              0
(PID.TID 0000.0001) //            Min. Y spins =     1000000000
(PID.TID 0000.0001) //          Total. Y spins =              0
(PID.TID 0000.0001) //            Avg. Y spins =       0.00E+00
(PID.TID 0000.0001) // o Tile number: 000220
(PID.TID 0000.0001) //         No. X exchanges =              0
(PID.TID 0000.0001) //            Max. X spins =              0
(PID.TID 0000.0001) //            Min. X spins =     1000000000
(PID.TID 0000.0001) //          Total. X spins =              0
(PID.TID 0000.0001) //            Avg. X spins =       0.00E+00
(PID.TID 0000.0001) //         No. Y exchanges =              0
(PID.TID 0000.0001) //            Max. Y spins =              0
(PID.TID 0000.0001) //            Min. Y spins =     1000000000
(PID.TID 0000.0001) //          Total. Y spins =              0
(PID.TID 0000.0001) //            Avg. Y spins =       0.00E+00
(PID.TID 0000.0001) // o Tile number: 000221
(PID.TID 0000.0001) //         No. X exchanges =              0
(PID.TID 0000.0001) //            Max. X spins =              0
(PID.TID 0000.0001) //            Min. X spins =     1000000000
(PID.TID 0000.0001) //          Total. X spins =              0
(PID.TID 0000.0001) //            Avg. X spins =       0.00E+00
(PID.TID 0000.0001) //         No. Y exchanges =              0
(PID.TID 0000.0001) //            Max. Y spins =              0
(PID.TID 0000.0001) //            Min. Y spins =     1000000000
(PID.TID 0000.0001) //          Total. Y spins =              0
(PID.TID 0000.0001) //            Avg. Y spins =       0.00E+00
(PID.TID 0000.0001) // o Tile number: 000222
(PID.TID 0000.0001) //         No. X exchanges =              0
(PID.TID 0000.0001) //            Max. X spins =              0
(PID.TID 0000.0001) //            Min. X spins =     1000000000
(PID.TID 0000.0001) //          Total. X spins =              0
(PID.TID 0000.0001) //            Avg. X spins =       0.00E+00
(PID.TID 0000.0001) //         No. Y exchanges =              0
(PID.TID 0000.0001) //            Max. Y spins =              0
(PID.TID 0000.0001) //            Min. Y spins =     1000000000
(PID.TID 0000.0001) //          Total. Y spins =              0
(PID.TID 0000.0001) //            Avg. Y spins =       0.00E+00
(PID.TID 0000.0001) // o Tile number: 000223
(PID.TID 0000.0001) //         No. X exchanges =              0
(PID.TID 0000.0001) //            Max. X spins =              0
(PID.TID 0000.0001) //            Min. X spins =     1000000000
(PID.TID 0000.0001) //          Total. X spins =              0
(PID.TID 0000.0001) //            Avg. X spins =       0.00E+00
(PID.TID 0000.0001) //         No. Y exchanges =              0
(PID.TID 0000.0001) //            Max. Y spins =              0
(PID.TID 0000.0001) //            Min. Y spins =     1000000000
(PID.TID 0000.0001) //          Total. Y spins =              0
(PID.TID 0000.0001) //            Avg. Y spins =       0.00E+00
(PID.TID 0000.0001) // o Tile number: 000224
(PID.TID 0000.0001) //         No. X exchanges =              0
(PID.TID 0000.0001) //            Max. X spins =              0
(PID.TID 0000.0001) //            Min. X spins =     1000000000
(PID.TID 0000.0001) //          Total. X spins =              0
(PID.TID 0000.0001) //            Avg. X spins =       0.00E+00
(PID.TID 0000.0001) //         No. Y exchanges =              0
(PID.TID 0000.0001) //            Max. Y spins =              0
(PID.TID 0000.0001) //            Min. Y spins =     1000000000
(PID.TID 0000.0001) //          Total. Y spins =              0
(PID.TID 0000.0001) //            Avg. Y spins =       0.00E+00
(PID.TID 0000.0001) // o Tile number: 000225
(PID.TID 0000.0001) //         No. X exchanges =              0
(PID.TID 0000.0001) //            Max. X spins =              0
(PID.TID 0000.0001) //            Min. X spins =     1000000000
(PID.TID 0000.0001) //          Total. X spins =              0
(PID.TID 0000.0001) //            Avg. X spins =       0.00E+00
(PID.TID 0000.0001) //         No. Y exchanges =              0
(PID.TID 0000.0001) //            Max. Y spins =              0
(PID.TID 0000.0001) //            Min. Y spins =     1000000000
(PID.TID 0000.0001) //          Total. Y spins =              0
(PID.TID 0000.0001) //            Avg. Y spins =       0.00E+00
(PID.TID 0000.0001) // o Thread number: 000001
(PID.TID 0000.0001) //            No. barriers =         128102
(PID.TID 0000.0001) //      Max. barrier spins =              1
(PID.TID 0000.0001) //      Min. barrier spins =              1
(PID.TID 0000.0001) //     Total barrier spins =         128102
(PID.TID 0000.0001) //      Avg. barrier spins =       1.00E+00
PROGRAM MAIN: Execution ended Normally
