(PID.TID 0000.0001) 
(PID.TID 0000.0001) // ======================================================
(PID.TID 0000.0001) //                      MITgcm UV
(PID.TID 0000.0001) //                      =========
(PID.TID 0000.0001) // ======================================================
(PID.TID 0000.0001) // execution environment starting up...
(PID.TID 0000.0001) 
(PID.TID 0000.0001) // MITgcmUV version:  checkpoint68z
(PID.TID 0000.0001) // Build user:        estebancruz
(PID.TID 0000.0001) // Build host:        Estebanovich-MacBook-Pro.local
(PID.TID 0000.0001) // Build date:        Sat Feb  1 12:16:08 CST 2025
(PID.TID 0000.0001) 
(PID.TID 0000.0001) // =======================================================
(PID.TID 0000.0001) // Execution Environment parameter file "eedata"
(PID.TID 0000.0001) // =======================================================
(PID.TID 0000.0001) ># Example "eedata" file
(PID.TID 0000.0001) ># Lines beginning "#" are comments
(PID.TID 0000.0001) >#  nTx      :: No. threads per process in X
(PID.TID 0000.0001) >#  nTy      :: No. threads per process in Y
(PID.TID 0000.0001) ># debugMode :: print debug msg (sequence of S/R calls)
(PID.TID 0000.0001) > &EEPARMS
(PID.TID 0000.0001) > nTx=1,
(PID.TID 0000.0001) > nTy=1,
(PID.TID 0000.0001) > /
(PID.TID 0000.0001) ># Note: Some systems use & as the namelist terminator (as shown here).
(PID.TID 0000.0001) >#       Other systems use a / character.
(PID.TID 0000.0001) 
(PID.TID 0000.0001) // =======================================================
(PID.TID 0000.0001) // Computational Grid Specification ( see files "SIZE.h" )
(PID.TID 0000.0001) //                                  ( and "eedata"       )
(PID.TID 0000.0001) // =======================================================
(PID.TID 0000.0001)      nPx =    1 ; /* No. processes in X */
(PID.TID 0000.0001)      nPy =    1 ; /* No. processes in Y */
(PID.TID 0000.0001)      nSx =   16 ; /* No. tiles in X per process */
(PID.TID 0000.0001)      nSy =   16 ; /* No. tiles in Y per process */
(PID.TID 0000.0001)      sNx =   17 ; /* Tile size in X */
(PID.TID 0000.0001)      sNy =   20 ; /* Tile size in Y */
(PID.TID 0000.0001)      OLx =    3 ; /* Tile overlap distance in X */
(PID.TID 0000.0001)      OLy =    3 ; /* Tile overlap distance in Y */
(PID.TID 0000.0001)      nTx =    1 ; /* No. threads in X per process */
(PID.TID 0000.0001)      nTy =    1 ; /* No. threads in Y per process */
(PID.TID 0000.0001)       Nr =   30 ; /* No. levels in the vertical   */
(PID.TID 0000.0001)       Nx =  272 ; /* Total domain size in X ( = nPx*nSx*sNx ) */
(PID.TID 0000.0001)       Ny =  320 ; /* Total domain size in Y ( = nPy*nSy*sNy ) */
(PID.TID 0000.0001)   nTiles =  256 ; /* Total no. tiles per process ( = nSx*nSy ) */
(PID.TID 0000.0001)   nProcs =    1 ; /* Total no. processes ( = nPx*nPy ) */
(PID.TID 0000.0001) nThreads =    1 ; /* Total no. threads per process ( = nTx*nTy ) */
(PID.TID 0000.0001) usingMPI =    F ; /* Flag used to control whether MPI is in use */
(PID.TID 0000.0001)                   /*  note: To execute a program with MPI calls */
(PID.TID 0000.0001)                   /*  it must be launched appropriately e.g     */
(PID.TID 0000.0001)                   /*  "mpirun -np 64 ......"                    */
(PID.TID 0000.0001) useCoupler=   F ; /* Flag used to control communications with   */
(PID.TID 0000.0001)                   /*  other model components, through a coupler */
(PID.TID 0000.0001) useNest2W_parent =    F ;/* Control 2-W Nesting comm */
(PID.TID 0000.0001) useNest2W_child  =    F ;/* Control 2-W Nesting comm */
(PID.TID 0000.0001) debugMode =    F ; /* print debug msg. (sequence of S/R calls)  */
(PID.TID 0000.0001) printMapIncludesZeros=    F ; /* print zeros in Std.Output maps */
(PID.TID 0000.0001) maxLengthPrt1D=   65 /* maxLength of 1D array printed to StdOut */
(PID.TID 0000.0001) 
(PID.TID 0000.0001) // ======================================================
(PID.TID 0000.0001) // Mapping of tiles to threads
(PID.TID 0000.0001) // ======================================================
(PID.TID 0000.0001) // -o- Thread   1, tiles (   1:  16,   1:  16)
(PID.TID 0000.0001) 
(PID.TID 0000.0001) // ======================================================
(PID.TID 0000.0001) // Tile <-> Tile connectvity table
(PID.TID 0000.0001) // ======================================================
(PID.TID 0000.0001) // Tile number: 000001 (process no. = 000000)
(PID.TID 0000.0001) //        WEST: Tile = 000016, Process = 000000, Comm = put
(PID.TID 0000.0001) //                bi = 000016, bj = 000001
(PID.TID 0000.0001) //        EAST: Tile = 000002, Process = 000000, Comm = put
(PID.TID 0000.0001) //                bi = 000002, bj = 000001
(PID.TID 0000.0001) //       SOUTH: Tile = 000241, Process = 000000, Comm = put
(PID.TID 0000.0001) //                bi = 000001, bj = 000016
(PID.TID 0000.0001) //       NORTH: Tile = 000017, Process = 000000, Comm = put
(PID.TID 0000.0001) //                bi = 000001, bj = 000002
(PID.TID 0000.0001) // Tile number: 000002 (process no. = 000000)
(PID.TID 0000.0001) //        WEST: Tile = 000001, Process = 000000, Comm = put
(PID.TID 0000.0001) //                bi = 000001, bj = 000001
(PID.TID 0000.0001) //        EAST: Tile = 000003, Process = 000000, Comm = put
(PID.TID 0000.0001) //                bi = 000003, bj = 000001
(PID.TID 0000.0001) //       SOUTH: Tile = 000242, Process = 000000, Comm = put
(PID.TID 0000.0001) //                bi = 000002, bj = 000016
(PID.TID 0000.0001) //       NORTH: Tile = 000018, Process = 000000, Comm = put
(PID.TID 0000.0001) //                bi = 000002, bj = 000002
(PID.TID 0000.0001) // Tile number: 000003 (process no. = 000000)
(PID.TID 0000.0001) //        WEST: Tile = 000002, Process = 000000, Comm = put
(PID.TID 0000.0001) //                bi = 000002, bj = 000001
(PID.TID 0000.0001) //        EAST: Tile = 000004, Process = 000000, Comm = put
(PID.TID 0000.0001) //                bi = 000004, bj = 000001
(PID.TID 0000.0001) //       SOUTH: Tile = 000243, Process = 000000, Comm = put
(PID.TID 0000.0001) //                bi = 000003, bj = 000016
(PID.TID 0000.0001) //       NORTH: Tile = 000019, Process = 000000, Comm = put
(PID.TID 0000.0001) //                bi = 000003, bj = 000002
(PID.TID 0000.0001) // Tile number: 000004 (process no. = 000000)
(PID.TID 0000.0001) //        WEST: Tile = 000003, Process = 000000, Comm = put
(PID.TID 0000.0001) //                bi = 000003, bj = 000001
(PID.TID 0000.0001) //        EAST: Tile = 000005, Process = 000000, Comm = put
(PID.TID 0000.0001) //                bi = 000005, bj = 000001
(PID.TID 0000.0001) //       SOUTH: Tile = 000244, Process = 000000, Comm = put
(PID.TID 0000.0001) //                bi = 000004, bj = 000016
(PID.TID 0000.0001) //       NORTH: Tile = 000020, Process = 000000, Comm = put
(PID.TID 0000.0001) //                bi = 000004, bj = 000002
(PID.TID 0000.0001) // Tile number: 000005 (process no. = 000000)
(PID.TID 0000.0001) //        WEST: Tile = 000004, Process = 000000, Comm = put
(PID.TID 0000.0001) //                bi = 000004, bj = 000001
(PID.TID 0000.0001) //        EAST: Tile = 000006, Process = 000000, Comm = put
(PID.TID 0000.0001) //                bi = 000006, bj = 000001
(PID.TID 0000.0001) //       SOUTH: Tile = 000245, Process = 000000, Comm = put
(PID.TID 0000.0001) //                bi = 000005, bj = 000016
(PID.TID 0000.0001) //       NORTH: Tile = 000021, Process = 000000, Comm = put
(PID.TID 0000.0001) //                bi = 000005, bj = 000002
(PID.TID 0000.0001) // Tile number: 000006 (process no. = 000000)
(PID.TID 0000.0001) //        WEST: Tile = 000005, Process = 000000, Comm = put
(PID.TID 0000.0001) //                bi = 000005, bj = 000001
(PID.TID 0000.0001) //        EAST: Tile = 000007, Process = 000000, Comm = put
(PID.TID 0000.0001) //                bi = 000007, bj = 000001
(PID.TID 0000.0001) //       SOUTH: Tile = 000246, Process = 000000, Comm = put
(PID.TID 0000.0001) //                bi = 000006, bj = 000016
(PID.TID 0000.0001) //       NORTH: Tile = 000022, Process = 000000, Comm = put
(PID.TID 0000.0001) //                bi = 000006, bj = 000002
(PID.TID 0000.0001) // Tile number: 000007 (process no. = 000000)
(PID.TID 0000.0001) //        WEST: Tile = 000006, Process = 000000, Comm = put
(PID.TID 0000.0001) //                bi = 000006, bj = 000001
(PID.TID 0000.0001) //        EAST: Tile = 000008, Process = 000000, Comm = put
(PID.TID 0000.0001) //                bi = 000008, bj = 000001
(PID.TID 0000.0001) //       SOUTH: Tile = 000247, Process = 000000, Comm = put
(PID.TID 0000.0001) //                bi = 000007, bj = 000016
(PID.TID 0000.0001) //       NORTH: Tile = 000023, Process = 000000, Comm = put
(PID.TID 0000.0001) //                bi = 000007, bj = 000002
(PID.TID 0000.0001) // Tile number: 000008 (process no. = 000000)
(PID.TID 0000.0001) //        WEST: Tile = 000007, Process = 000000, Comm = put
(PID.TID 0000.0001) //                bi = 000007, bj = 000001
(PID.TID 0000.0001) //        EAST: Tile = 000009, Process = 000000, Comm = put
(PID.TID 0000.0001) //                bi = 000009, bj = 000001
(PID.TID 0000.0001) //       SOUTH: Tile = 000248, Process = 000000, Comm = put
(PID.TID 0000.0001) //                bi = 000008, bj = 000016
(PID.TID 0000.0001) //       NORTH: Tile = 000024, Process = 000000, Comm = put
(PID.TID 0000.0001) //                bi = 000008, bj = 000002
(PID.TID 0000.0001) // Tile number: 000009 (process no. = 000000)
(PID.TID 0000.0001) //        WEST: Tile = 000008, Process = 000000, Comm = put
(PID.TID 0000.0001) //                bi = 000008, bj = 000001
(PID.TID 0000.0001) //        EAST: Tile = 000010, Process = 000000, Comm = put
(PID.TID 0000.0001) //                bi = 000010, bj = 000001
(PID.TID 0000.0001) //       SOUTH: Tile = 000249, Process = 000000, Comm = put
(PID.TID 0000.0001) //                bi = 000009, bj = 000016
(PID.TID 0000.0001) //       NORTH: Tile = 000025, Process = 000000, Comm = put
(PID.TID 0000.0001) //                bi = 000009, bj = 000002
(PID.TID 0000.0001) // Tile number: 000010 (process no. = 000000)
(PID.TID 0000.0001) //        WEST: Tile = 000009, Process = 000000, Comm = put
(PID.TID 0000.0001) //                bi = 000009, bj = 000001
(PID.TID 0000.0001) //        EAST: Tile = 000011, Process = 000000, Comm = put
(PID.TID 0000.0001) //                bi = 000011, bj = 000001
(PID.TID 0000.0001) //       SOUTH: Tile = 000250, Process = 000000, Comm = put
(PID.TID 0000.0001) //                bi = 000010, bj = 000016
(PID.TID 0000.0001) //       NORTH: Tile = 000026, Process = 000000, Comm = put
(PID.TID 0000.0001) //                bi = 000010, bj = 000002
(PID.TID 0000.0001) // Tile number: 000011 (process no. = 000000)
(PID.TID 0000.0001) //        WEST: Tile = 000010, Process = 000000, Comm = put
(PID.TID 0000.0001) //                bi = 000010, bj = 000001
(PID.TID 0000.0001) //        EAST: Tile = 000012, Process = 000000, Comm = put
(PID.TID 0000.0001) //                bi = 000012, bj = 000001
(PID.TID 0000.0001) //       SOUTH: Tile = 000251, Process = 000000, Comm = put
(PID.TID 0000.0001) //                bi = 000011, bj = 000016
(PID.TID 0000.0001) //       NORTH: Tile = 000027, Process = 000000, Comm = put
(PID.TID 0000.0001) //                bi = 000011, bj = 000002
(PID.TID 0000.0001) // Tile number: 000012 (process no. = 000000)
(PID.TID 0000.0001) //        WEST: Tile = 000011, Process = 000000, Comm = put
(PID.TID 0000.0001) //                bi = 000011, bj = 000001
(PID.TID 0000.0001) //        EAST: Tile = 000013, Process = 000000, Comm = put
(PID.TID 0000.0001) //                bi = 000013, bj = 000001
(PID.TID 0000.0001) //       SOUTH: Tile = 000252, Process = 000000, Comm = put
(PID.TID 0000.0001) //                bi = 000012, bj = 000016
(PID.TID 0000.0001) //       NORTH: Tile = 000028, Process = 000000, Comm = put
(PID.TID 0000.0001) //                bi = 000012, bj = 000002
(PID.TID 0000.0001) // Tile number: 000013 (process no. = 000000)
(PID.TID 0000.0001) //        WEST: Tile = 000012, Process = 000000, Comm = put
(PID.TID 0000.0001) //                bi = 000012, bj = 000001
(PID.TID 0000.0001) //        EAST: Tile = 000014, Process = 000000, Comm = put
(PID.TID 0000.0001) //                bi = 000014, bj = 000001
(PID.TID 0000.0001) //       SOUTH: Tile = 000253, Process = 000000, Comm = put
(PID.TID 0000.0001) //                bi = 000013, bj = 000016
(PID.TID 0000.0001) //       NORTH: Tile = 000029, Process = 000000, Comm = put
(PID.TID 0000.0001) //                bi = 000013, bj = 000002
(PID.TID 0000.0001) // Tile number: 000014 (process no. = 000000)
(PID.TID 0000.0001) //        WEST: Tile = 000013, Process = 000000, Comm = put
(PID.TID 0000.0001) //                bi = 000013, bj = 000001
(PID.TID 0000.0001) //        EAST: Tile = 000015, Process = 000000, Comm = put
(PID.TID 0000.0001) //                bi = 000015, bj = 000001
(PID.TID 0000.0001) //       SOUTH: Tile = 000254, Process = 000000, Comm = put
(PID.TID 0000.0001) //                bi = 000014, bj = 000016
(PID.TID 0000.0001) //       NORTH: Tile = 000030, Process = 000000, Comm = put
(PID.TID 0000.0001) //                bi = 000014, bj = 000002
(PID.TID 0000.0001) // Tile number: 000015 (process no. = 000000)
(PID.TID 0000.0001) //        WEST: Tile = 000014, Process = 000000, Comm = put
(PID.TID 0000.0001) //                bi = 000014, bj = 000001
(PID.TID 0000.0001) //        EAST: Tile = 000016, Process = 000000, Comm = put
(PID.TID 0000.0001) //                bi = 000016, bj = 000001
(PID.TID 0000.0001) //       SOUTH: Tile = 000255, Process = 000000, Comm = put
(PID.TID 0000.0001) //                bi = 000015, bj = 000016
(PID.TID 0000.0001) //       NORTH: Tile = 000031, Process = 000000, Comm = put
(PID.TID 0000.0001) //                bi = 000015, bj = 000002
(PID.TID 0000.0001) // Tile number: 000016 (process no. = 000000)
(PID.TID 0000.0001) //        WEST: Tile = 000015, Process = 000000, Comm = put
(PID.TID 0000.0001) //                bi = 000015, bj = 000001
(PID.TID 0000.0001) //        EAST: Tile = 000001, Process = 000000, Comm = put
(PID.TID 0000.0001) //                bi = 000001, bj = 000001
(PID.TID 0000.0001) //       SOUTH: Tile = 000256, Process = 000000, Comm = put
(PID.TID 0000.0001) //                bi = 000016, bj = 000016
(PID.TID 0000.0001) //       NORTH: Tile = 000032, Process = 000000, Comm = put
(PID.TID 0000.0001) //                bi = 000016, bj = 000002
(PID.TID 0000.0001) // Tile number: 000017 (process no. = 000000)
(PID.TID 0000.0001) //        WEST: Tile = 000032, Process = 000000, Comm = put
(PID.TID 0000.0001) //                bi = 000016, bj = 000002
(PID.TID 0000.0001) //        EAST: Tile = 000018, Process = 000000, Comm = put
(PID.TID 0000.0001) //                bi = 000002, bj = 000002
(PID.TID 0000.0001) //       SOUTH: Tile = 000001, Process = 000000, Comm = put
(PID.TID 0000.0001) //                bi = 000001, bj = 000001
(PID.TID 0000.0001) //       NORTH: Tile = 000033, Process = 000000, Comm = put
(PID.TID 0000.0001) //                bi = 000001, bj = 000003
(PID.TID 0000.0001) // Tile number: 000018 (process no. = 000000)
(PID.TID 0000.0001) //        WEST: Tile = 000017, Process = 000000, Comm = put
(PID.TID 0000.0001) //                bi = 000001, bj = 000002
(PID.TID 0000.0001) //        EAST: Tile = 000019, Process = 000000, Comm = put
(PID.TID 0000.0001) //                bi = 000003, bj = 000002
(PID.TID 0000.0001) //       SOUTH: Tile = 000002, Process = 000000, Comm = put
(PID.TID 0000.0001) //                bi = 000002, bj = 000001
(PID.TID 0000.0001) //       NORTH: Tile = 000034, Process = 000000, Comm = put
(PID.TID 0000.0001) //                bi = 000002, bj = 000003
(PID.TID 0000.0001) // Tile number: 000019 (process no. = 000000)
(PID.TID 0000.0001) //        WEST: Tile = 000018, Process = 000000, Comm = put
(PID.TID 0000.0001) //                bi = 000002, bj = 000002
(PID.TID 0000.0001) //        EAST: Tile = 000020, Process = 000000, Comm = put
(PID.TID 0000.0001) //                bi = 000004, bj = 000002
(PID.TID 0000.0001) //       SOUTH: Tile = 000003, Process = 000000, Comm = put
(PID.TID 0000.0001) //                bi = 000003, bj = 000001
(PID.TID 0000.0001) //       NORTH: Tile = 000035, Process = 000000, Comm = put
(PID.TID 0000.0001) //                bi = 000003, bj = 000003
(PID.TID 0000.0001) // Tile number: 000020 (process no. = 000000)
(PID.TID 0000.0001) //        WEST: Tile = 000019, Process = 000000, Comm = put
(PID.TID 0000.0001) //                bi = 000003, bj = 000002
(PID.TID 0000.0001) //        EAST: Tile = 000021, Process = 000000, Comm = put
(PID.TID 0000.0001) //                bi = 000005, bj = 000002
(PID.TID 0000.0001) //       SOUTH: Tile = 000004, Process = 000000, Comm = put
(PID.TID 0000.0001) //                bi = 000004, bj = 000001
(PID.TID 0000.0001) //       NORTH: Tile = 000036, Process = 000000, Comm = put
(PID.TID 0000.0001) //                bi = 000004, bj = 000003
(PID.TID 0000.0001) // Tile number: 000021 (process no. = 000000)
(PID.TID 0000.0001) //        WEST: Tile = 000020, Process = 000000, Comm = put
(PID.TID 0000.0001) //                bi = 000004, bj = 000002
(PID.TID 0000.0001) //        EAST: Tile = 000022, Process = 000000, Comm = put
(PID.TID 0000.0001) //                bi = 000006, bj = 000002
(PID.TID 0000.0001) //       SOUTH: Tile = 000005, Process = 000000, Comm = put
(PID.TID 0000.0001) //                bi = 000005, bj = 000001
(PID.TID 0000.0001) //       NORTH: Tile = 000037, Process = 000000, Comm = put
(PID.TID 0000.0001) //                bi = 000005, bj = 000003
(PID.TID 0000.0001) // Tile number: 000022 (process no. = 000000)
(PID.TID 0000.0001) //        WEST: Tile = 000021, Process = 000000, Comm = put
(PID.TID 0000.0001) //                bi = 000005, bj = 000002
(PID.TID 0000.0001) //        EAST: Tile = 000023, Process = 000000, Comm = put
(PID.TID 0000.0001) //                bi = 000007, bj = 000002
(PID.TID 0000.0001) //       SOUTH: Tile = 000006, Process = 000000, Comm = put
(PID.TID 0000.0001) //                bi = 000006, bj = 000001
(PID.TID 0000.0001) //       NORTH: Tile = 000038, Process = 000000, Comm = put
(PID.TID 0000.0001) //                bi = 000006, bj = 000003
(PID.TID 0000.0001) // Tile number: 000023 (process no. = 000000)
(PID.TID 0000.0001) //        WEST: Tile = 000022, Process = 000000, Comm = put
(PID.TID 0000.0001) //                bi = 000006, bj = 000002
(PID.TID 0000.0001) //        EAST: Tile = 000024, Process = 000000, Comm = put
(PID.TID 0000.0001) //                bi = 000008, bj = 000002
(PID.TID 0000.0001) //       SOUTH: Tile = 000007, Process = 000000, Comm = put
(PID.TID 0000.0001) //                bi = 000007, bj = 000001
(PID.TID 0000.0001) //       NORTH: Tile = 000039, Process = 000000, Comm = put
(PID.TID 0000.0001) //                bi = 000007, bj = 000003
(PID.TID 0000.0001) // Tile number: 000024 (process no. = 000000)
(PID.TID 0000.0001) //        WEST: Tile = 000023, Process = 000000, Comm = put
(PID.TID 0000.0001) //                bi = 000007, bj = 000002
(PID.TID 0000.0001) //        EAST: Tile = 000025, Process = 000000, Comm = put
(PID.TID 0000.0001) //                bi = 000009, bj = 000002
(PID.TID 0000.0001) //       SOUTH: Tile = 000008, Process = 000000, Comm = put
(PID.TID 0000.0001) //                bi = 000008, bj = 000001
(PID.TID 0000.0001) //       NORTH: Tile = 000040, Process = 000000, Comm = put
(PID.TID 0000.0001) //                bi = 000008, bj = 000003
(PID.TID 0000.0001) // Tile number: 000025 (process no. = 000000)
(PID.TID 0000.0001) //        WEST: Tile = 000024, Process = 000000, Comm = put
(PID.TID 0000.0001) //                bi = 000008, bj = 000002
(PID.TID 0000.0001) //        EAST: Tile = 000026, Process = 000000, Comm = put
(PID.TID 0000.0001) //                bi = 000010, bj = 000002
(PID.TID 0000.0001) //       SOUTH: Tile = 000009, Process = 000000, Comm = put
(PID.TID 0000.0001) //                bi = 000009, bj = 000001
(PID.TID 0000.0001) //       NORTH: Tile = 000041, Process = 000000, Comm = put
(PID.TID 0000.0001) //                bi = 000009, bj = 000003
(PID.TID 0000.0001) // Tile number: 000026 (process no. = 000000)
(PID.TID 0000.0001) //        WEST: Tile = 000025, Process = 000000, Comm = put
(PID.TID 0000.0001) //                bi = 000009, bj = 000002
(PID.TID 0000.0001) //        EAST: Tile = 000027, Process = 000000, Comm = put
(PID.TID 0000.0001) //                bi = 000011, bj = 000002
(PID.TID 0000.0001) //       SOUTH: Tile = 000010, Process = 000000, Comm = put
(PID.TID 0000.0001) //                bi = 000010, bj = 000001
(PID.TID 0000.0001) //       NORTH: Tile = 000042, Process = 000000, Comm = put
(PID.TID 0000.0001) //                bi = 000010, bj = 000003
(PID.TID 0000.0001) // Tile number: 000027 (process no. = 000000)
(PID.TID 0000.0001) //        WEST: Tile = 000026, Process = 000000, Comm = put
(PID.TID 0000.0001) //                bi = 000010, bj = 000002
(PID.TID 0000.0001) //        EAST: Tile = 000028, Process = 000000, Comm = put
(PID.TID 0000.0001) //                bi = 000012, bj = 000002
(PID.TID 0000.0001) //       SOUTH: Tile = 000011, Process = 000000, Comm = put
(PID.TID 0000.0001) //                bi = 000011, bj = 000001
(PID.TID 0000.0001) //       NORTH: Tile = 000043, Process = 000000, Comm = put
(PID.TID 0000.0001) //                bi = 000011, bj = 000003
(PID.TID 0000.0001) // Tile number: 000028 (process no. = 000000)
(PID.TID 0000.0001) //        WEST: Tile = 000027, Process = 000000, Comm = put
(PID.TID 0000.0001) //                bi = 000011, bj = 000002
(PID.TID 0000.0001) //        EAST: Tile = 000029, Process = 000000, Comm = put
(PID.TID 0000.0001) //                bi = 000013, bj = 000002
(PID.TID 0000.0001) //       SOUTH: Tile = 000012, Process = 000000, Comm = put
(PID.TID 0000.0001) //                bi = 000012, bj = 000001
(PID.TID 0000.0001) //       NORTH: Tile = 000044, Process = 000000, Comm = put
(PID.TID 0000.0001) //                bi = 000012, bj = 000003
(PID.TID 0000.0001) // Tile number: 000029 (process no. = 000000)
(PID.TID 0000.0001) //        WEST: Tile = 000028, Process = 000000, Comm = put
(PID.TID 0000.0001) //                bi = 000012, bj = 000002
(PID.TID 0000.0001) //        EAST: Tile = 000030, Process = 000000, Comm = put
(PID.TID 0000.0001) //                bi = 000014, bj = 000002
(PID.TID 0000.0001) //       SOUTH: Tile = 000013, Process = 000000, Comm = put
(PID.TID 0000.0001) //                bi = 000013, bj = 000001
(PID.TID 0000.0001) //       NORTH: Tile = 000045, Process = 000000, Comm = put
(PID.TID 0000.0001) //                bi = 000013, bj = 000003
(PID.TID 0000.0001) // Tile number: 000030 (process no. = 000000)
(PID.TID 0000.0001) //        WEST: Tile = 000029, Process = 000000, Comm = put
(PID.TID 0000.0001) //                bi = 000013, bj = 000002
(PID.TID 0000.0001) //        EAST: Tile = 000031, Process = 000000, Comm = put
(PID.TID 0000.0001) //                bi = 000015, bj = 000002
(PID.TID 0000.0001) //       SOUTH: Tile = 000014, Process = 000000, Comm = put
(PID.TID 0000.0001) //                bi = 000014, bj = 000001
(PID.TID 0000.0001) //       NORTH: Tile = 000046, Process = 000000, Comm = put
(PID.TID 0000.0001) //                bi = 000014, bj = 000003
(PID.TID 0000.0001) // Tile number: 000031 (process no. = 000000)
(PID.TID 0000.0001) //        WEST: Tile = 000030, Process = 000000, Comm = put
(PID.TID 0000.0001) //                bi = 000014, bj = 000002
(PID.TID 0000.0001) //        EAST: Tile = 000032, Process = 000000, Comm = put
(PID.TID 0000.0001) //                bi = 000016, bj = 000002
(PID.TID 0000.0001) //       SOUTH: Tile = 000015, Process = 000000, Comm = put
(PID.TID 0000.0001) //                bi = 000015, bj = 000001
(PID.TID 0000.0001) //       NORTH: Tile = 000047, Process = 000000, Comm = put
(PID.TID 0000.0001) //                bi = 000015, bj = 000003
(PID.TID 0000.0001) // Tile number: 000032 (process no. = 000000)
(PID.TID 0000.0001) //        WEST: Tile = 000031, Process = 000000, Comm = put
(PID.TID 0000.0001) //                bi = 000015, bj = 000002
(PID.TID 0000.0001) //        EAST: Tile = 000017, Process = 000000, Comm = put
(PID.TID 0000.0001) //                bi = 000001, bj = 000002
(PID.TID 0000.0001) //       SOUTH: Tile = 000016, Process = 000000, Comm = put
(PID.TID 0000.0001) //                bi = 000016, bj = 000001
(PID.TID 0000.0001) //       NORTH: Tile = 000048, Process = 000000, Comm = put
(PID.TID 0000.0001) //                bi = 000016, bj = 000003
(PID.TID 0000.0001) // Tile number: 000033 (process no. = 000000)
(PID.TID 0000.0001) //        WEST: Tile = 000048, Process = 000000, Comm = put
(PID.TID 0000.0001) //                bi = 000016, bj = 000003
(PID.TID 0000.0001) //        EAST: Tile = 000034, Process = 000000, Comm = put
(PID.TID 0000.0001) //                bi = 000002, bj = 000003
(PID.TID 0000.0001) //       SOUTH: Tile = 000017, Process = 000000, Comm = put
(PID.TID 0000.0001) //                bi = 000001, bj = 000002
(PID.TID 0000.0001) //       NORTH: Tile = 000049, Process = 000000, Comm = put
(PID.TID 0000.0001) //                bi = 000001, bj = 000004
(PID.TID 0000.0001) // Tile number: 000034 (process no. = 000000)
(PID.TID 0000.0001) //        WEST: Tile = 000033, Process = 000000, Comm = put
(PID.TID 0000.0001) //                bi = 000001, bj = 000003
(PID.TID 0000.0001) //        EAST: Tile = 000035, Process = 000000, Comm = put
(PID.TID 0000.0001) //                bi = 000003, bj = 000003
(PID.TID 0000.0001) //       SOUTH: Tile = 000018, Process = 000000, Comm = put
(PID.TID 0000.0001) //                bi = 000002, bj = 000002
(PID.TID 0000.0001) //       NORTH: Tile = 000050, Process = 000000, Comm = put
(PID.TID 0000.0001) //                bi = 000002, bj = 000004
(PID.TID 0000.0001) // Tile number: 000035 (process no. = 000000)
(PID.TID 0000.0001) //        WEST: Tile = 000034, Process = 000000, Comm = put
(PID.TID 0000.0001) //                bi = 000002, bj = 000003
(PID.TID 0000.0001) //        EAST: Tile = 000036, Process = 000000, Comm = put
(PID.TID 0000.0001) //                bi = 000004, bj = 000003
(PID.TID 0000.0001) //       SOUTH: Tile = 000019, Process = 000000, Comm = put
(PID.TID 0000.0001) //                bi = 000003, bj = 000002
(PID.TID 0000.0001) //       NORTH: Tile = 000051, Process = 000000, Comm = put
(PID.TID 0000.0001) //                bi = 000003, bj = 000004
(PID.TID 0000.0001) // Tile number: 000036 (process no. = 000000)
(PID.TID 0000.0001) //        WEST: Tile = 000035, Process = 000000, Comm = put
(PID.TID 0000.0001) //                bi = 000003, bj = 000003
(PID.TID 0000.0001) //        EAST: Tile = 000037, Process = 000000, Comm = put
(PID.TID 0000.0001) //                bi = 000005, bj = 000003
(PID.TID 0000.0001) //       SOUTH: Tile = 000020, Process = 000000, Comm = put
(PID.TID 0000.0001) //                bi = 000004, bj = 000002
(PID.TID 0000.0001) //       NORTH: Tile = 000052, Process = 000000, Comm = put
(PID.TID 0000.0001) //                bi = 000004, bj = 000004
(PID.TID 0000.0001) // Tile number: 000037 (process no. = 000000)
(PID.TID 0000.0001) //        WEST: Tile = 000036, Process = 000000, Comm = put
(PID.TID 0000.0001) //                bi = 000004, bj = 000003
(PID.TID 0000.0001) //        EAST: Tile = 000038, Process = 000000, Comm = put
(PID.TID 0000.0001) //                bi = 000006, bj = 000003
(PID.TID 0000.0001) //       SOUTH: Tile = 000021, Process = 000000, Comm = put
(PID.TID 0000.0001) //                bi = 000005, bj = 000002
(PID.TID 0000.0001) //       NORTH: Tile = 000053, Process = 000000, Comm = put
(PID.TID 0000.0001) //                bi = 000005, bj = 000004
(PID.TID 0000.0001) // Tile number: 000038 (process no. = 000000)
(PID.TID 0000.0001) //        WEST: Tile = 000037, Process = 000000, Comm = put
(PID.TID 0000.0001) //                bi = 000005, bj = 000003
(PID.TID 0000.0001) //        EAST: Tile = 000039, Process = 000000, Comm = put
(PID.TID 0000.0001) //                bi = 000007, bj = 000003
(PID.TID 0000.0001) //       SOUTH: Tile = 000022, Process = 000000, Comm = put
(PID.TID 0000.0001) //                bi = 000006, bj = 000002
(PID.TID 0000.0001) //       NORTH: Tile = 000054, Process = 000000, Comm = put
(PID.TID 0000.0001) //                bi = 000006, bj = 000004
(PID.TID 0000.0001) // Tile number: 000039 (process no. = 000000)
(PID.TID 0000.0001) //        WEST: Tile = 000038, Process = 000000, Comm = put
(PID.TID 0000.0001) //                bi = 000006, bj = 000003
(PID.TID 0000.0001) //        EAST: Tile = 000040, Process = 000000, Comm = put
(PID.TID 0000.0001) //                bi = 000008, bj = 000003
(PID.TID 0000.0001) //       SOUTH: Tile = 000023, Process = 000000, Comm = put
(PID.TID 0000.0001) //                bi = 000007, bj = 000002
(PID.TID 0000.0001) //       NORTH: Tile = 000055, Process = 000000, Comm = put
(PID.TID 0000.0001) //                bi = 000007, bj = 000004
(PID.TID 0000.0001) // Tile number: 000040 (process no. = 000000)
(PID.TID 0000.0001) //        WEST: Tile = 000039, Process = 000000, Comm = put
(PID.TID 0000.0001) //                bi = 000007, bj = 000003
(PID.TID 0000.0001) //        EAST: Tile = 000041, Process = 000000, Comm = put
(PID.TID 0000.0001) //                bi = 000009, bj = 000003
(PID.TID 0000.0001) //       SOUTH: Tile = 000024, Process = 000000, Comm = put
(PID.TID 0000.0001) //                bi = 000008, bj = 000002
(PID.TID 0000.0001) //       NORTH: Tile = 000056, Process = 000000, Comm = put
(PID.TID 0000.0001) //                bi = 000008, bj = 000004
(PID.TID 0000.0001) // Tile number: 000041 (process no. = 000000)
(PID.TID 0000.0001) //        WEST: Tile = 000040, Process = 000000, Comm = put
(PID.TID 0000.0001) //                bi = 000008, bj = 000003
(PID.TID 0000.0001) //        EAST: Tile = 000042, Process = 000000, Comm = put
(PID.TID 0000.0001) //                bi = 000010, bj = 000003
(PID.TID 0000.0001) //       SOUTH: Tile = 000025, Process = 000000, Comm = put
(PID.TID 0000.0001) //                bi = 000009, bj = 000002
(PID.TID 0000.0001) //       NORTH: Tile = 000057, Process = 000000, Comm = put
(PID.TID 0000.0001) //                bi = 000009, bj = 000004
(PID.TID 0000.0001) // Tile number: 000042 (process no. = 000000)
(PID.TID 0000.0001) //        WEST: Tile = 000041, Process = 000000, Comm = put
(PID.TID 0000.0001) //                bi = 000009, bj = 000003
(PID.TID 0000.0001) //        EAST: Tile = 000043, Process = 000000, Comm = put
(PID.TID 0000.0001) //                bi = 000011, bj = 000003
(PID.TID 0000.0001) //       SOUTH: Tile = 000026, Process = 000000, Comm = put
(PID.TID 0000.0001) //                bi = 000010, bj = 000002
(PID.TID 0000.0001) //       NORTH: Tile = 000058, Process = 000000, Comm = put
(PID.TID 0000.0001) //                bi = 000010, bj = 000004
(PID.TID 0000.0001) // Tile number: 000043 (process no. = 000000)
(PID.TID 0000.0001) //        WEST: Tile = 000042, Process = 000000, Comm = put
(PID.TID 0000.0001) //                bi = 000010, bj = 000003
(PID.TID 0000.0001) //        EAST: Tile = 000044, Process = 000000, Comm = put
(PID.TID 0000.0001) //                bi = 000012, bj = 000003
(PID.TID 0000.0001) //       SOUTH: Tile = 000027, Process = 000000, Comm = put
(PID.TID 0000.0001) //                bi = 000011, bj = 000002
(PID.TID 0000.0001) //       NORTH: Tile = 000059, Process = 000000, Comm = put
(PID.TID 0000.0001) //                bi = 000011, bj = 000004
(PID.TID 0000.0001) // Tile number: 000044 (process no. = 000000)
(PID.TID 0000.0001) //        WEST: Tile = 000043, Process = 000000, Comm = put
(PID.TID 0000.0001) //                bi = 000011, bj = 000003
(PID.TID 0000.0001) //        EAST: Tile = 000045, Process = 000000, Comm = put
(PID.TID 0000.0001) //                bi = 000013, bj = 000003
(PID.TID 0000.0001) //       SOUTH: Tile = 000028, Process = 000000, Comm = put
(PID.TID 0000.0001) //                bi = 000012, bj = 000002
(PID.TID 0000.0001) //       NORTH: Tile = 000060, Process = 000000, Comm = put
(PID.TID 0000.0001) //                bi = 000012, bj = 000004
(PID.TID 0000.0001) // Tile number: 000045 (process no. = 000000)
(PID.TID 0000.0001) //        WEST: Tile = 000044, Process = 000000, Comm = put
(PID.TID 0000.0001) //                bi = 000012, bj = 000003
(PID.TID 0000.0001) //        EAST: Tile = 000046, Process = 000000, Comm = put
(PID.TID 0000.0001) //                bi = 000014, bj = 000003
(PID.TID 0000.0001) //       SOUTH: Tile = 000029, Process = 000000, Comm = put
(PID.TID 0000.0001) //                bi = 000013, bj = 000002
(PID.TID 0000.0001) //       NORTH: Tile = 000061, Process = 000000, Comm = put
(PID.TID 0000.0001) //                bi = 000013, bj = 000004
(PID.TID 0000.0001) // Tile number: 000046 (process no. = 000000)
(PID.TID 0000.0001) //        WEST: Tile = 000045, Process = 000000, Comm = put
(PID.TID 0000.0001) //                bi = 000013, bj = 000003
(PID.TID 0000.0001) //        EAST: Tile = 000047, Process = 000000, Comm = put
(PID.TID 0000.0001) //                bi = 000015, bj = 000003
(PID.TID 0000.0001) //       SOUTH: Tile = 000030, Process = 000000, Comm = put
(PID.TID 0000.0001) //                bi = 000014, bj = 000002
(PID.TID 0000.0001) //       NORTH: Tile = 000062, Process = 000000, Comm = put
(PID.TID 0000.0001) //                bi = 000014, bj = 000004
(PID.TID 0000.0001) // Tile number: 000047 (process no. = 000000)
(PID.TID 0000.0001) //        WEST: Tile = 000046, Process = 000000, Comm = put
(PID.TID 0000.0001) //                bi = 000014, bj = 000003
(PID.TID 0000.0001) //        EAST: Tile = 000048, Process = 000000, Comm = put
(PID.TID 0000.0001) //                bi = 000016, bj = 000003
(PID.TID 0000.0001) //       SOUTH: Tile = 000031, Process = 000000, Comm = put
(PID.TID 0000.0001) //                bi = 000015, bj = 000002
(PID.TID 0000.0001) //       NORTH: Tile = 000063, Process = 000000, Comm = put
(PID.TID 0000.0001) //                bi = 000015, bj = 000004
(PID.TID 0000.0001) // Tile number: 000048 (process no. = 000000)
(PID.TID 0000.0001) //        WEST: Tile = 000047, Process = 000000, Comm = put
(PID.TID 0000.0001) //                bi = 000015, bj = 000003
(PID.TID 0000.0001) //        EAST: Tile = 000033, Process = 000000, Comm = put
(PID.TID 0000.0001) //                bi = 000001, bj = 000003
(PID.TID 0000.0001) //       SOUTH: Tile = 000032, Process = 000000, Comm = put
(PID.TID 0000.0001) //                bi = 000016, bj = 000002
(PID.TID 0000.0001) //       NORTH: Tile = 000064, Process = 000000, Comm = put
(PID.TID 0000.0001) //                bi = 000016, bj = 000004
(PID.TID 0000.0001) // Tile number: 000049 (process no. = 000000)
(PID.TID 0000.0001) //        WEST: Tile = 000064, Process = 000000, Comm = put
(PID.TID 0000.0001) //                bi = 000016, bj = 000004
(PID.TID 0000.0001) //        EAST: Tile = 000050, Process = 000000, Comm = put
(PID.TID 0000.0001) //                bi = 000002, bj = 000004
(PID.TID 0000.0001) //       SOUTH: Tile = 000033, Process = 000000, Comm = put
(PID.TID 0000.0001) //                bi = 000001, bj = 000003
(PID.TID 0000.0001) //       NORTH: Tile = 000065, Process = 000000, Comm = put
(PID.TID 0000.0001) //                bi = 000001, bj = 000005
(PID.TID 0000.0001) // Tile number: 000050 (process no. = 000000)
(PID.TID 0000.0001) //        WEST: Tile = 000049, Process = 000000, Comm = put
(PID.TID 0000.0001) //                bi = 000001, bj = 000004
(PID.TID 0000.0001) //        EAST: Tile = 000051, Process = 000000, Comm = put
(PID.TID 0000.0001) //                bi = 000003, bj = 000004
(PID.TID 0000.0001) //       SOUTH: Tile = 000034, Process = 000000, Comm = put
(PID.TID 0000.0001) //                bi = 000002, bj = 000003
(PID.TID 0000.0001) //       NORTH: Tile = 000066, Process = 000000, Comm = put
(PID.TID 0000.0001) //                bi = 000002, bj = 000005
(PID.TID 0000.0001) // Tile number: 000051 (process no. = 000000)
(PID.TID 0000.0001) //        WEST: Tile = 000050, Process = 000000, Comm = put
(PID.TID 0000.0001) //                bi = 000002, bj = 000004
(PID.TID 0000.0001) //        EAST: Tile = 000052, Process = 000000, Comm = put
(PID.TID 0000.0001) //                bi = 000004, bj = 000004
(PID.TID 0000.0001) //       SOUTH: Tile = 000035, Process = 000000, Comm = put
(PID.TID 0000.0001) //                bi = 000003, bj = 000003
(PID.TID 0000.0001) //       NORTH: Tile = 000067, Process = 000000, Comm = put
(PID.TID 0000.0001) //                bi = 000003, bj = 000005
(PID.TID 0000.0001) // Tile number: 000052 (process no. = 000000)
(PID.TID 0000.0001) //        WEST: Tile = 000051, Process = 000000, Comm = put
(PID.TID 0000.0001) //                bi = 000003, bj = 000004
(PID.TID 0000.0001) //        EAST: Tile = 000053, Process = 000000, Comm = put
(PID.TID 0000.0001) //                bi = 000005, bj = 000004
(PID.TID 0000.0001) //       SOUTH: Tile = 000036, Process = 000000, Comm = put
(PID.TID 0000.0001) //                bi = 000004, bj = 000003
(PID.TID 0000.0001) //       NORTH: Tile = 000068, Process = 000000, Comm = put
(PID.TID 0000.0001) //                bi = 000004, bj = 000005
(PID.TID 0000.0001) // Tile number: 000053 (process no. = 000000)
(PID.TID 0000.0001) //        WEST: Tile = 000052, Process = 000000, Comm = put
(PID.TID 0000.0001) //                bi = 000004, bj = 000004
(PID.TID 0000.0001) //        EAST: Tile = 000054, Process = 000000, Comm = put
(PID.TID 0000.0001) //                bi = 000006, bj = 000004
(PID.TID 0000.0001) //       SOUTH: Tile = 000037, Process = 000000, Comm = put
(PID.TID 0000.0001) //                bi = 000005, bj = 000003
(PID.TID 0000.0001) //       NORTH: Tile = 000069, Process = 000000, Comm = put
(PID.TID 0000.0001) //                bi = 000005, bj = 000005
(PID.TID 0000.0001) // Tile number: 000054 (process no. = 000000)
(PID.TID 0000.0001) //        WEST: Tile = 000053, Process = 000000, Comm = put
(PID.TID 0000.0001) //                bi = 000005, bj = 000004
(PID.TID 0000.0001) //        EAST: Tile = 000055, Process = 000000, Comm = put
(PID.TID 0000.0001) //                bi = 000007, bj = 000004
(PID.TID 0000.0001) //       SOUTH: Tile = 000038, Process = 000000, Comm = put
(PID.TID 0000.0001) //                bi = 000006, bj = 000003
(PID.TID 0000.0001) //       NORTH: Tile = 000070, Process = 000000, Comm = put
(PID.TID 0000.0001) //                bi = 000006, bj = 000005
(PID.TID 0000.0001) // Tile number: 000055 (process no. = 000000)
(PID.TID 0000.0001) //        WEST: Tile = 000054, Process = 000000, Comm = put
(PID.TID 0000.0001) //                bi = 000006, bj = 000004
(PID.TID 0000.0001) //        EAST: Tile = 000056, Process = 000000, Comm = put
(PID.TID 0000.0001) //                bi = 000008, bj = 000004
(PID.TID 0000.0001) //       SOUTH: Tile = 000039, Process = 000000, Comm = put
(PID.TID 0000.0001) //                bi = 000007, bj = 000003
(PID.TID 0000.0001) //       NORTH: Tile = 000071, Process = 000000, Comm = put
(PID.TID 0000.0001) //                bi = 000007, bj = 000005
(PID.TID 0000.0001) // Tile number: 000056 (process no. = 000000)
(PID.TID 0000.0001) //        WEST: Tile = 000055, Process = 000000, Comm = put
(PID.TID 0000.0001) //                bi = 000007, bj = 000004
(PID.TID 0000.0001) //        EAST: Tile = 000057, Process = 000000, Comm = put
(PID.TID 0000.0001) //                bi = 000009, bj = 000004
(PID.TID 0000.0001) //       SOUTH: Tile = 000040, Process = 000000, Comm = put
(PID.TID 0000.0001) //                bi = 000008, bj = 000003
(PID.TID 0000.0001) //       NORTH: Tile = 000072, Process = 000000, Comm = put
(PID.TID 0000.0001) //                bi = 000008, bj = 000005
(PID.TID 0000.0001) // Tile number: 000057 (process no. = 000000)
(PID.TID 0000.0001) //        WEST: Tile = 000056, Process = 000000, Comm = put
(PID.TID 0000.0001) //                bi = 000008, bj = 000004
(PID.TID 0000.0001) //        EAST: Tile = 000058, Process = 000000, Comm = put
(PID.TID 0000.0001) //                bi = 000010, bj = 000004
(PID.TID 0000.0001) //       SOUTH: Tile = 000041, Process = 000000, Comm = put
(PID.TID 0000.0001) //                bi = 000009, bj = 000003
(PID.TID 0000.0001) //       NORTH: Tile = 000073, Process = 000000, Comm = put
(PID.TID 0000.0001) //                bi = 000009, bj = 000005
(PID.TID 0000.0001) // Tile number: 000058 (process no. = 000000)
(PID.TID 0000.0001) //        WEST: Tile = 000057, Process = 000000, Comm = put
(PID.TID 0000.0001) //                bi = 000009, bj = 000004
(PID.TID 0000.0001) //        EAST: Tile = 000059, Process = 000000, Comm = put
(PID.TID 0000.0001) //                bi = 000011, bj = 000004
(PID.TID 0000.0001) //       SOUTH: Tile = 000042, Process = 000000, Comm = put
(PID.TID 0000.0001) //                bi = 000010, bj = 000003
(PID.TID 0000.0001) //       NORTH: Tile = 000074, Process = 000000, Comm = put
(PID.TID 0000.0001) //                bi = 000010, bj = 000005
(PID.TID 0000.0001) // Tile number: 000059 (process no. = 000000)
(PID.TID 0000.0001) //        WEST: Tile = 000058, Process = 000000, Comm = put
(PID.TID 0000.0001) //                bi = 000010, bj = 000004
(PID.TID 0000.0001) //        EAST: Tile = 000060, Process = 000000, Comm = put
(PID.TID 0000.0001) //                bi = 000012, bj = 000004
(PID.TID 0000.0001) //       SOUTH: Tile = 000043, Process = 000000, Comm = put
(PID.TID 0000.0001) //                bi = 000011, bj = 000003
(PID.TID 0000.0001) //       NORTH: Tile = 000075, Process = 000000, Comm = put
(PID.TID 0000.0001) //                bi = 000011, bj = 000005
(PID.TID 0000.0001) // Tile number: 000060 (process no. = 000000)
(PID.TID 0000.0001) //        WEST: Tile = 000059, Process = 000000, Comm = put
(PID.TID 0000.0001) //                bi = 000011, bj = 000004
(PID.TID 0000.0001) //        EAST: Tile = 000061, Process = 000000, Comm = put
(PID.TID 0000.0001) //                bi = 000013, bj = 000004
(PID.TID 0000.0001) //       SOUTH: Tile = 000044, Process = 000000, Comm = put
(PID.TID 0000.0001) //                bi = 000012, bj = 000003
(PID.TID 0000.0001) //       NORTH: Tile = 000076, Process = 000000, Comm = put
(PID.TID 0000.0001) //                bi = 000012, bj = 000005
(PID.TID 0000.0001) // Tile number: 000061 (process no. = 000000)
(PID.TID 0000.0001) //        WEST: Tile = 000060, Process = 000000, Comm = put
(PID.TID 0000.0001) //                bi = 000012, bj = 000004
(PID.TID 0000.0001) //        EAST: Tile = 000062, Process = 000000, Comm = put
(PID.TID 0000.0001) //                bi = 000014, bj = 000004
(PID.TID 0000.0001) //       SOUTH: Tile = 000045, Process = 000000, Comm = put
(PID.TID 0000.0001) //                bi = 000013, bj = 000003
(PID.TID 0000.0001) //       NORTH: Tile = 000077, Process = 000000, Comm = put
(PID.TID 0000.0001) //                bi = 000013, bj = 000005
(PID.TID 0000.0001) // Tile number: 000062 (process no. = 000000)
(PID.TID 0000.0001) //        WEST: Tile = 000061, Process = 000000, Comm = put
(PID.TID 0000.0001) //                bi = 000013, bj = 000004
(PID.TID 0000.0001) //        EAST: Tile = 000063, Process = 000000, Comm = put
(PID.TID 0000.0001) //                bi = 000015, bj = 000004
(PID.TID 0000.0001) //       SOUTH: Tile = 000046, Process = 000000, Comm = put
(PID.TID 0000.0001) //                bi = 000014, bj = 000003
(PID.TID 0000.0001) //       NORTH: Tile = 000078, Process = 000000, Comm = put
(PID.TID 0000.0001) //                bi = 000014, bj = 000005
(PID.TID 0000.0001) // Tile number: 000063 (process no. = 000000)
(PID.TID 0000.0001) //        WEST: Tile = 000062, Process = 000000, Comm = put
(PID.TID 0000.0001) //                bi = 000014, bj = 000004
(PID.TID 0000.0001) //        EAST: Tile = 000064, Process = 000000, Comm = put
(PID.TID 0000.0001) //                bi = 000016, bj = 000004
(PID.TID 0000.0001) //       SOUTH: Tile = 000047, Process = 000000, Comm = put
(PID.TID 0000.0001) //                bi = 000015, bj = 000003
(PID.TID 0000.0001) //       NORTH: Tile = 000079, Process = 000000, Comm = put
(PID.TID 0000.0001) //                bi = 000015, bj = 000005
(PID.TID 0000.0001) // Tile number: 000064 (process no. = 000000)
(PID.TID 0000.0001) //        WEST: Tile = 000063, Process = 000000, Comm = put
(PID.TID 0000.0001) //                bi = 000015, bj = 000004
(PID.TID 0000.0001) //        EAST: Tile = 000049, Process = 000000, Comm = put
(PID.TID 0000.0001) //                bi = 000001, bj = 000004
(PID.TID 0000.0001) //       SOUTH: Tile = 000048, Process = 000000, Comm = put
(PID.TID 0000.0001) //                bi = 000016, bj = 000003
(PID.TID 0000.0001) //       NORTH: Tile = 000080, Process = 000000, Comm = put
(PID.TID 0000.0001) //                bi = 000016, bj = 000005
(PID.TID 0000.0001) // Tile number: 000065 (process no. = 000000)
(PID.TID 0000.0001) //        WEST: Tile = 000080, Process = 000000, Comm = put
(PID.TID 0000.0001) //                bi = 000016, bj = 000005
(PID.TID 0000.0001) //        EAST: Tile = 000066, Process = 000000, Comm = put
(PID.TID 0000.0001) //                bi = 000002, bj = 000005
(PID.TID 0000.0001) //       SOUTH: Tile = 000049, Process = 000000, Comm = put
(PID.TID 0000.0001) //                bi = 000001, bj = 000004
(PID.TID 0000.0001) //       NORTH: Tile = 000081, Process = 000000, Comm = put
(PID.TID 0000.0001) //                bi = 000001, bj = 000006
(PID.TID 0000.0001) // Tile number: 000066 (process no. = 000000)
(PID.TID 0000.0001) //        WEST: Tile = 000065, Process = 000000, Comm = put
(PID.TID 0000.0001) //                bi = 000001, bj = 000005
(PID.TID 0000.0001) //        EAST: Tile = 000067, Process = 000000, Comm = put
(PID.TID 0000.0001) //                bi = 000003, bj = 000005
(PID.TID 0000.0001) //       SOUTH: Tile = 000050, Process = 000000, Comm = put
(PID.TID 0000.0001) //                bi = 000002, bj = 000004
(PID.TID 0000.0001) //       NORTH: Tile = 000082, Process = 000000, Comm = put
(PID.TID 0000.0001) //                bi = 000002, bj = 000006
(PID.TID 0000.0001) // Tile number: 000067 (process no. = 000000)
(PID.TID 0000.0001) //        WEST: Tile = 000066, Process = 000000, Comm = put
(PID.TID 0000.0001) //                bi = 000002, bj = 000005
(PID.TID 0000.0001) //        EAST: Tile = 000068, Process = 000000, Comm = put
(PID.TID 0000.0001) //                bi = 000004, bj = 000005
(PID.TID 0000.0001) //       SOUTH: Tile = 000051, Process = 000000, Comm = put
(PID.TID 0000.0001) //                bi = 000003, bj = 000004
(PID.TID 0000.0001) //       NORTH: Tile = 000083, Process = 000000, Comm = put
(PID.TID 0000.0001) //                bi = 000003, bj = 000006
(PID.TID 0000.0001) // Tile number: 000068 (process no. = 000000)
(PID.TID 0000.0001) //        WEST: Tile = 000067, Process = 000000, Comm = put
(PID.TID 0000.0001) //                bi = 000003, bj = 000005
(PID.TID 0000.0001) //        EAST: Tile = 000069, Process = 000000, Comm = put
(PID.TID 0000.0001) //                bi = 000005, bj = 000005
(PID.TID 0000.0001) //       SOUTH: Tile = 000052, Process = 000000, Comm = put
(PID.TID 0000.0001) //                bi = 000004, bj = 000004
(PID.TID 0000.0001) //       NORTH: Tile = 000084, Process = 000000, Comm = put
(PID.TID 0000.0001) //                bi = 000004, bj = 000006
(PID.TID 0000.0001) // Tile number: 000069 (process no. = 000000)
(PID.TID 0000.0001) //        WEST: Tile = 000068, Process = 000000, Comm = put
(PID.TID 0000.0001) //                bi = 000004, bj = 000005
(PID.TID 0000.0001) //        EAST: Tile = 000070, Process = 000000, Comm = put
(PID.TID 0000.0001) //                bi = 000006, bj = 000005
(PID.TID 0000.0001) //       SOUTH: Tile = 000053, Process = 000000, Comm = put
(PID.TID 0000.0001) //                bi = 000005, bj = 000004
(PID.TID 0000.0001) //       NORTH: Tile = 000085, Process = 000000, Comm = put
(PID.TID 0000.0001) //                bi = 000005, bj = 000006
(PID.TID 0000.0001) // Tile number: 000070 (process no. = 000000)
(PID.TID 0000.0001) //        WEST: Tile = 000069, Process = 000000, Comm = put
(PID.TID 0000.0001) //                bi = 000005, bj = 000005
(PID.TID 0000.0001) //        EAST: Tile = 000071, Process = 000000, Comm = put
(PID.TID 0000.0001) //                bi = 000007, bj = 000005
(PID.TID 0000.0001) //       SOUTH: Tile = 000054, Process = 000000, Comm = put
(PID.TID 0000.0001) //                bi = 000006, bj = 000004
(PID.TID 0000.0001) //       NORTH: Tile = 000086, Process = 000000, Comm = put
(PID.TID 0000.0001) //                bi = 000006, bj = 000006
(PID.TID 0000.0001) // Tile number: 000071 (process no. = 000000)
(PID.TID 0000.0001) //        WEST: Tile = 000070, Process = 000000, Comm = put
(PID.TID 0000.0001) //                bi = 000006, bj = 000005
(PID.TID 0000.0001) //        EAST: Tile = 000072, Process = 000000, Comm = put
(PID.TID 0000.0001) //                bi = 000008, bj = 000005
(PID.TID 0000.0001) //       SOUTH: Tile = 000055, Process = 000000, Comm = put
(PID.TID 0000.0001) //                bi = 000007, bj = 000004
(PID.TID 0000.0001) //       NORTH: Tile = 000087, Process = 000000, Comm = put
(PID.TID 0000.0001) //                bi = 000007, bj = 000006
(PID.TID 0000.0001) // Tile number: 000072 (process no. = 000000)
(PID.TID 0000.0001) //        WEST: Tile = 000071, Process = 000000, Comm = put
(PID.TID 0000.0001) //                bi = 000007, bj = 000005
(PID.TID 0000.0001) //        EAST: Tile = 000073, Process = 000000, Comm = put
(PID.TID 0000.0001) //                bi = 000009, bj = 000005
(PID.TID 0000.0001) //       SOUTH: Tile = 000056, Process = 000000, Comm = put
(PID.TID 0000.0001) //                bi = 000008, bj = 000004
(PID.TID 0000.0001) //       NORTH: Tile = 000088, Process = 000000, Comm = put
(PID.TID 0000.0001) //                bi = 000008, bj = 000006
(PID.TID 0000.0001) // Tile number: 000073 (process no. = 000000)
(PID.TID 0000.0001) //        WEST: Tile = 000072, Process = 000000, Comm = put
(PID.TID 0000.0001) //                bi = 000008, bj = 000005
(PID.TID 0000.0001) //        EAST: Tile = 000074, Process = 000000, Comm = put
(PID.TID 0000.0001) //                bi = 000010, bj = 000005
(PID.TID 0000.0001) //       SOUTH: Tile = 000057, Process = 000000, Comm = put
(PID.TID 0000.0001) //                bi = 000009, bj = 000004
(PID.TID 0000.0001) //       NORTH: Tile = 000089, Process = 000000, Comm = put
(PID.TID 0000.0001) //                bi = 000009, bj = 000006
(PID.TID 0000.0001) // Tile number: 000074 (process no. = 000000)
(PID.TID 0000.0001) //        WEST: Tile = 000073, Process = 000000, Comm = put
(PID.TID 0000.0001) //                bi = 000009, bj = 000005
(PID.TID 0000.0001) //        EAST: Tile = 000075, Process = 000000, Comm = put
(PID.TID 0000.0001) //                bi = 000011, bj = 000005
(PID.TID 0000.0001) //       SOUTH: Tile = 000058, Process = 000000, Comm = put
(PID.TID 0000.0001) //                bi = 000010, bj = 000004
(PID.TID 0000.0001) //       NORTH: Tile = 000090, Process = 000000, Comm = put
(PID.TID 0000.0001) //                bi = 000010, bj = 000006
(PID.TID 0000.0001) // Tile number: 000075 (process no. = 000000)
(PID.TID 0000.0001) //        WEST: Tile = 000074, Process = 000000, Comm = put
(PID.TID 0000.0001) //                bi = 000010, bj = 000005
(PID.TID 0000.0001) //        EAST: Tile = 000076, Process = 000000, Comm = put
(PID.TID 0000.0001) //                bi = 000012, bj = 000005
(PID.TID 0000.0001) //       SOUTH: Tile = 000059, Process = 000000, Comm = put
(PID.TID 0000.0001) //                bi = 000011, bj = 000004
(PID.TID 0000.0001) //       NORTH: Tile = 000091, Process = 000000, Comm = put
(PID.TID 0000.0001) //                bi = 000011, bj = 000006
(PID.TID 0000.0001) // Tile number: 000076 (process no. = 000000)
(PID.TID 0000.0001) //        WEST: Tile = 000075, Process = 000000, Comm = put
(PID.TID 0000.0001) //                bi = 000011, bj = 000005
(PID.TID 0000.0001) //        EAST: Tile = 000077, Process = 000000, Comm = put
(PID.TID 0000.0001) //                bi = 000013, bj = 000005
(PID.TID 0000.0001) //       SOUTH: Tile = 000060, Process = 000000, Comm = put
(PID.TID 0000.0001) //                bi = 000012, bj = 000004
(PID.TID 0000.0001) //       NORTH: Tile = 000092, Process = 000000, Comm = put
(PID.TID 0000.0001) //                bi = 000012, bj = 000006
(PID.TID 0000.0001) // Tile number: 000077 (process no. = 000000)
(PID.TID 0000.0001) //        WEST: Tile = 000076, Process = 000000, Comm = put
(PID.TID 0000.0001) //                bi = 000012, bj = 000005
(PID.TID 0000.0001) //        EAST: Tile = 000078, Process = 000000, Comm = put
(PID.TID 0000.0001) //                bi = 000014, bj = 000005
(PID.TID 0000.0001) //       SOUTH: Tile = 000061, Process = 000000, Comm = put
(PID.TID 0000.0001) //                bi = 000013, bj = 000004
(PID.TID 0000.0001) //       NORTH: Tile = 000093, Process = 000000, Comm = put
(PID.TID 0000.0001) //                bi = 000013, bj = 000006
(PID.TID 0000.0001) // Tile number: 000078 (process no. = 000000)
(PID.TID 0000.0001) //        WEST: Tile = 000077, Process = 000000, Comm = put
(PID.TID 0000.0001) //                bi = 000013, bj = 000005
(PID.TID 0000.0001) //        EAST: Tile = 000079, Process = 000000, Comm = put
(PID.TID 0000.0001) //                bi = 000015, bj = 000005
(PID.TID 0000.0001) //       SOUTH: Tile = 000062, Process = 000000, Comm = put
(PID.TID 0000.0001) //                bi = 000014, bj = 000004
(PID.TID 0000.0001) //       NORTH: Tile = 000094, Process = 000000, Comm = put
(PID.TID 0000.0001) //                bi = 000014, bj = 000006
(PID.TID 0000.0001) // Tile number: 000079 (process no. = 000000)
(PID.TID 0000.0001) //        WEST: Tile = 000078, Process = 000000, Comm = put
(PID.TID 0000.0001) //                bi = 000014, bj = 000005
(PID.TID 0000.0001) //        EAST: Tile = 000080, Process = 000000, Comm = put
(PID.TID 0000.0001) //                bi = 000016, bj = 000005
(PID.TID 0000.0001) //       SOUTH: Tile = 000063, Process = 000000, Comm = put
(PID.TID 0000.0001) //                bi = 000015, bj = 000004
(PID.TID 0000.0001) //       NORTH: Tile = 000095, Process = 000000, Comm = put
(PID.TID 0000.0001) //                bi = 000015, bj = 000006
(PID.TID 0000.0001) // Tile number: 000080 (process no. = 000000)
(PID.TID 0000.0001) //        WEST: Tile = 000079, Process = 000000, Comm = put
(PID.TID 0000.0001) //                bi = 000015, bj = 000005
(PID.TID 0000.0001) //        EAST: Tile = 000065, Process = 000000, Comm = put
(PID.TID 0000.0001) //                bi = 000001, bj = 000005
(PID.TID 0000.0001) //       SOUTH: Tile = 000064, Process = 000000, Comm = put
(PID.TID 0000.0001) //                bi = 000016, bj = 000004
(PID.TID 0000.0001) //       NORTH: Tile = 000096, Process = 000000, Comm = put
(PID.TID 0000.0001) //                bi = 000016, bj = 000006
(PID.TID 0000.0001) // Tile number: 000081 (process no. = 000000)
(PID.TID 0000.0001) //        WEST: Tile = 000096, Process = 000000, Comm = put
(PID.TID 0000.0001) //                bi = 000016, bj = 000006
(PID.TID 0000.0001) //        EAST: Tile = 000082, Process = 000000, Comm = put
(PID.TID 0000.0001) //                bi = 000002, bj = 000006
(PID.TID 0000.0001) //       SOUTH: Tile = 000065, Process = 000000, Comm = put
(PID.TID 0000.0001) //                bi = 000001, bj = 000005
(PID.TID 0000.0001) //       NORTH: Tile = 000097, Process = 000000, Comm = put
(PID.TID 0000.0001) //                bi = 000001, bj = 000007
(PID.TID 0000.0001) // Tile number: 000082 (process no. = 000000)
(PID.TID 0000.0001) //        WEST: Tile = 000081, Process = 000000, Comm = put
(PID.TID 0000.0001) //                bi = 000001, bj = 000006
(PID.TID 0000.0001) //        EAST: Tile = 000083, Process = 000000, Comm = put
(PID.TID 0000.0001) //                bi = 000003, bj = 000006
(PID.TID 0000.0001) //       SOUTH: Tile = 000066, Process = 000000, Comm = put
(PID.TID 0000.0001) //                bi = 000002, bj = 000005
(PID.TID 0000.0001) //       NORTH: Tile = 000098, Process = 000000, Comm = put
(PID.TID 0000.0001) //                bi = 000002, bj = 000007
(PID.TID 0000.0001) // Tile number: 000083 (process no. = 000000)
(PID.TID 0000.0001) //        WEST: Tile = 000082, Process = 000000, Comm = put
(PID.TID 0000.0001) //                bi = 000002, bj = 000006
(PID.TID 0000.0001) //        EAST: Tile = 000084, Process = 000000, Comm = put
(PID.TID 0000.0001) //                bi = 000004, bj = 000006
(PID.TID 0000.0001) //       SOUTH: Tile = 000067, Process = 000000, Comm = put
(PID.TID 0000.0001) //                bi = 000003, bj = 000005
(PID.TID 0000.0001) //       NORTH: Tile = 000099, Process = 000000, Comm = put
(PID.TID 0000.0001) //                bi = 000003, bj = 000007
(PID.TID 0000.0001) // Tile number: 000084 (process no. = 000000)
(PID.TID 0000.0001) //        WEST: Tile = 000083, Process = 000000, Comm = put
(PID.TID 0000.0001) //                bi = 000003, bj = 000006
(PID.TID 0000.0001) //        EAST: Tile = 000085, Process = 000000, Comm = put
(PID.TID 0000.0001) //                bi = 000005, bj = 000006
(PID.TID 0000.0001) //       SOUTH: Tile = 000068, Process = 000000, Comm = put
(PID.TID 0000.0001) //                bi = 000004, bj = 000005
(PID.TID 0000.0001) //       NORTH: Tile = 000100, Process = 000000, Comm = put
(PID.TID 0000.0001) //                bi = 000004, bj = 000007
(PID.TID 0000.0001) // Tile number: 000085 (process no. = 000000)
(PID.TID 0000.0001) //        WEST: Tile = 000084, Process = 000000, Comm = put
(PID.TID 0000.0001) //                bi = 000004, bj = 000006
(PID.TID 0000.0001) //        EAST: Tile = 000086, Process = 000000, Comm = put
(PID.TID 0000.0001) //                bi = 000006, bj = 000006
(PID.TID 0000.0001) //       SOUTH: Tile = 000069, Process = 000000, Comm = put
(PID.TID 0000.0001) //                bi = 000005, bj = 000005
(PID.TID 0000.0001) //       NORTH: Tile = 000101, Process = 000000, Comm = put
(PID.TID 0000.0001) //                bi = 000005, bj = 000007
(PID.TID 0000.0001) // Tile number: 000086 (process no. = 000000)
(PID.TID 0000.0001) //        WEST: Tile = 000085, Process = 000000, Comm = put
(PID.TID 0000.0001) //                bi = 000005, bj = 000006
(PID.TID 0000.0001) //        EAST: Tile = 000087, Process = 000000, Comm = put
(PID.TID 0000.0001) //                bi = 000007, bj = 000006
(PID.TID 0000.0001) //       SOUTH: Tile = 000070, Process = 000000, Comm = put
(PID.TID 0000.0001) //                bi = 000006, bj = 000005
(PID.TID 0000.0001) //       NORTH: Tile = 000102, Process = 000000, Comm = put
(PID.TID 0000.0001) //                bi = 000006, bj = 000007
(PID.TID 0000.0001) // Tile number: 000087 (process no. = 000000)
(PID.TID 0000.0001) //        WEST: Tile = 000086, Process = 000000, Comm = put
(PID.TID 0000.0001) //                bi = 000006, bj = 000006
(PID.TID 0000.0001) //        EAST: Tile = 000088, Process = 000000, Comm = put
(PID.TID 0000.0001) //                bi = 000008, bj = 000006
(PID.TID 0000.0001) //       SOUTH: Tile = 000071, Process = 000000, Comm = put
(PID.TID 0000.0001) //                bi = 000007, bj = 000005
(PID.TID 0000.0001) //       NORTH: Tile = 000103, Process = 000000, Comm = put
(PID.TID 0000.0001) //                bi = 000007, bj = 000007
(PID.TID 0000.0001) // Tile number: 000088 (process no. = 000000)
(PID.TID 0000.0001) //        WEST: Tile = 000087, Process = 000000, Comm = put
(PID.TID 0000.0001) //                bi = 000007, bj = 000006
(PID.TID 0000.0001) //        EAST: Tile = 000089, Process = 000000, Comm = put
(PID.TID 0000.0001) //                bi = 000009, bj = 000006
(PID.TID 0000.0001) //       SOUTH: Tile = 000072, Process = 000000, Comm = put
(PID.TID 0000.0001) //                bi = 000008, bj = 000005
(PID.TID 0000.0001) //       NORTH: Tile = 000104, Process = 000000, Comm = put
(PID.TID 0000.0001) //                bi = 000008, bj = 000007
(PID.TID 0000.0001) // Tile number: 000089 (process no. = 000000)
(PID.TID 0000.0001) //        WEST: Tile = 000088, Process = 000000, Comm = put
(PID.TID 0000.0001) //                bi = 000008, bj = 000006
(PID.TID 0000.0001) //        EAST: Tile = 000090, Process = 000000, Comm = put
(PID.TID 0000.0001) //                bi = 000010, bj = 000006
(PID.TID 0000.0001) //       SOUTH: Tile = 000073, Process = 000000, Comm = put
(PID.TID 0000.0001) //                bi = 000009, bj = 000005
(PID.TID 0000.0001) //       NORTH: Tile = 000105, Process = 000000, Comm = put
(PID.TID 0000.0001) //                bi = 000009, bj = 000007
(PID.TID 0000.0001) // Tile number: 000090 (process no. = 000000)
(PID.TID 0000.0001) //        WEST: Tile = 000089, Process = 000000, Comm = put
(PID.TID 0000.0001) //                bi = 000009, bj = 000006
(PID.TID 0000.0001) //        EAST: Tile = 000091, Process = 000000, Comm = put
(PID.TID 0000.0001) //                bi = 000011, bj = 000006
(PID.TID 0000.0001) //       SOUTH: Tile = 000074, Process = 000000, Comm = put
(PID.TID 0000.0001) //                bi = 000010, bj = 000005
(PID.TID 0000.0001) //       NORTH: Tile = 000106, Process = 000000, Comm = put
(PID.TID 0000.0001) //                bi = 000010, bj = 000007
(PID.TID 0000.0001) // Tile number: 000091 (process no. = 000000)
(PID.TID 0000.0001) //        WEST: Tile = 000090, Process = 000000, Comm = put
(PID.TID 0000.0001) //                bi = 000010, bj = 000006
(PID.TID 0000.0001) //        EAST: Tile = 000092, Process = 000000, Comm = put
(PID.TID 0000.0001) //                bi = 000012, bj = 000006
(PID.TID 0000.0001) //       SOUTH: Tile = 000075, Process = 000000, Comm = put
(PID.TID 0000.0001) //                bi = 000011, bj = 000005
(PID.TID 0000.0001) //       NORTH: Tile = 000107, Process = 000000, Comm = put
(PID.TID 0000.0001) //                bi = 000011, bj = 000007
(PID.TID 0000.0001) // Tile number: 000092 (process no. = 000000)
(PID.TID 0000.0001) //        WEST: Tile = 000091, Process = 000000, Comm = put
(PID.TID 0000.0001) //                bi = 000011, bj = 000006
(PID.TID 0000.0001) //        EAST: Tile = 000093, Process = 000000, Comm = put
(PID.TID 0000.0001) //                bi = 000013, bj = 000006
(PID.TID 0000.0001) //       SOUTH: Tile = 000076, Process = 000000, Comm = put
(PID.TID 0000.0001) //                bi = 000012, bj = 000005
(PID.TID 0000.0001) //       NORTH: Tile = 000108, Process = 000000, Comm = put
(PID.TID 0000.0001) //                bi = 000012, bj = 000007
(PID.TID 0000.0001) // Tile number: 000093 (process no. = 000000)
(PID.TID 0000.0001) //        WEST: Tile = 000092, Process = 000000, Comm = put
(PID.TID 0000.0001) //                bi = 000012, bj = 000006
(PID.TID 0000.0001) //        EAST: Tile = 000094, Process = 000000, Comm = put
(PID.TID 0000.0001) //                bi = 000014, bj = 000006
(PID.TID 0000.0001) //       SOUTH: Tile = 000077, Process = 000000, Comm = put
(PID.TID 0000.0001) //                bi = 000013, bj = 000005
(PID.TID 0000.0001) //       NORTH: Tile = 000109, Process = 000000, Comm = put
(PID.TID 0000.0001) //                bi = 000013, bj = 000007
(PID.TID 0000.0001) // Tile number: 000094 (process no. = 000000)
(PID.TID 0000.0001) //        WEST: Tile = 000093, Process = 000000, Comm = put
(PID.TID 0000.0001) //                bi = 000013, bj = 000006
(PID.TID 0000.0001) //        EAST: Tile = 000095, Process = 000000, Comm = put
(PID.TID 0000.0001) //                bi = 000015, bj = 000006
(PID.TID 0000.0001) //       SOUTH: Tile = 000078, Process = 000000, Comm = put
(PID.TID 0000.0001) //                bi = 000014, bj = 000005
(PID.TID 0000.0001) //       NORTH: Tile = 000110, Process = 000000, Comm = put
(PID.TID 0000.0001) //                bi = 000014, bj = 000007
(PID.TID 0000.0001) // Tile number: 000095 (process no. = 000000)
(PID.TID 0000.0001) //        WEST: Tile = 000094, Process = 000000, Comm = put
(PID.TID 0000.0001) //                bi = 000014, bj = 000006
(PID.TID 0000.0001) //        EAST: Tile = 000096, Process = 000000, Comm = put
(PID.TID 0000.0001) //                bi = 000016, bj = 000006
(PID.TID 0000.0001) //       SOUTH: Tile = 000079, Process = 000000, Comm = put
(PID.TID 0000.0001) //                bi = 000015, bj = 000005
(PID.TID 0000.0001) //       NORTH: Tile = 000111, Process = 000000, Comm = put
(PID.TID 0000.0001) //                bi = 000015, bj = 000007
(PID.TID 0000.0001) // Tile number: 000096 (process no. = 000000)
(PID.TID 0000.0001) //        WEST: Tile = 000095, Process = 000000, Comm = put
(PID.TID 0000.0001) //                bi = 000015, bj = 000006
(PID.TID 0000.0001) //        EAST: Tile = 000081, Process = 000000, Comm = put
(PID.TID 0000.0001) //                bi = 000001, bj = 000006
(PID.TID 0000.0001) //       SOUTH: Tile = 000080, Process = 000000, Comm = put
(PID.TID 0000.0001) //                bi = 000016, bj = 000005
(PID.TID 0000.0001) //       NORTH: Tile = 000112, Process = 000000, Comm = put
(PID.TID 0000.0001) //                bi = 000016, bj = 000007
(PID.TID 0000.0001) // Tile number: 000097 (process no. = 000000)
(PID.TID 0000.0001) //        WEST: Tile = 000112, Process = 000000, Comm = put
(PID.TID 0000.0001) //                bi = 000016, bj = 000007
(PID.TID 0000.0001) //        EAST: Tile = 000098, Process = 000000, Comm = put
(PID.TID 0000.0001) //                bi = 000002, bj = 000007
(PID.TID 0000.0001) //       SOUTH: Tile = 000081, Process = 000000, Comm = put
(PID.TID 0000.0001) //                bi = 000001, bj = 000006
(PID.TID 0000.0001) //       NORTH: Tile = 000113, Process = 000000, Comm = put
(PID.TID 0000.0001) //                bi = 000001, bj = 000008
(PID.TID 0000.0001) // Tile number: 000098 (process no. = 000000)
(PID.TID 0000.0001) //        WEST: Tile = 000097, Process = 000000, Comm = put
(PID.TID 0000.0001) //                bi = 000001, bj = 000007
(PID.TID 0000.0001) //        EAST: Tile = 000099, Process = 000000, Comm = put
(PID.TID 0000.0001) //                bi = 000003, bj = 000007
(PID.TID 0000.0001) //       SOUTH: Tile = 000082, Process = 000000, Comm = put
(PID.TID 0000.0001) //                bi = 000002, bj = 000006
(PID.TID 0000.0001) //       NORTH: Tile = 000114, Process = 000000, Comm = put
(PID.TID 0000.0001) //                bi = 000002, bj = 000008
(PID.TID 0000.0001) // Tile number: 000099 (process no. = 000000)
(PID.TID 0000.0001) //        WEST: Tile = 000098, Process = 000000, Comm = put
(PID.TID 0000.0001) //                bi = 000002, bj = 000007
(PID.TID 0000.0001) //        EAST: Tile = 000100, Process = 000000, Comm = put
(PID.TID 0000.0001) //                bi = 000004, bj = 000007
(PID.TID 0000.0001) //       SOUTH: Tile = 000083, Process = 000000, Comm = put
(PID.TID 0000.0001) //                bi = 000003, bj = 000006
(PID.TID 0000.0001) //       NORTH: Tile = 000115, Process = 000000, Comm = put
(PID.TID 0000.0001) //                bi = 000003, bj = 000008
(PID.TID 0000.0001) // Tile number: 000100 (process no. = 000000)
(PID.TID 0000.0001) //        WEST: Tile = 000099, Process = 000000, Comm = put
(PID.TID 0000.0001) //                bi = 000003, bj = 000007
(PID.TID 0000.0001) //        EAST: Tile = 000101, Process = 000000, Comm = put
(PID.TID 0000.0001) //                bi = 000005, bj = 000007
(PID.TID 0000.0001) //       SOUTH: Tile = 000084, Process = 000000, Comm = put
(PID.TID 0000.0001) //                bi = 000004, bj = 000006
(PID.TID 0000.0001) //       NORTH: Tile = 000116, Process = 000000, Comm = put
(PID.TID 0000.0001) //                bi = 000004, bj = 000008
(PID.TID 0000.0001) // Tile number: 000101 (process no. = 000000)
(PID.TID 0000.0001) //        WEST: Tile = 000100, Process = 000000, Comm = put
(PID.TID 0000.0001) //                bi = 000004, bj = 000007
(PID.TID 0000.0001) //        EAST: Tile = 000102, Process = 000000, Comm = put
(PID.TID 0000.0001) //                bi = 000006, bj = 000007
(PID.TID 0000.0001) //       SOUTH: Tile = 000085, Process = 000000, Comm = put
(PID.TID 0000.0001) //                bi = 000005, bj = 000006
(PID.TID 0000.0001) //       NORTH: Tile = 000117, Process = 000000, Comm = put
(PID.TID 0000.0001) //                bi = 000005, bj = 000008
(PID.TID 0000.0001) // Tile number: 000102 (process no. = 000000)
(PID.TID 0000.0001) //        WEST: Tile = 000101, Process = 000000, Comm = put
(PID.TID 0000.0001) //                bi = 000005, bj = 000007
(PID.TID 0000.0001) //        EAST: Tile = 000103, Process = 000000, Comm = put
(PID.TID 0000.0001) //                bi = 000007, bj = 000007
(PID.TID 0000.0001) //       SOUTH: Tile = 000086, Process = 000000, Comm = put
(PID.TID 0000.0001) //                bi = 000006, bj = 000006
(PID.TID 0000.0001) //       NORTH: Tile = 000118, Process = 000000, Comm = put
(PID.TID 0000.0001) //                bi = 000006, bj = 000008
(PID.TID 0000.0001) // Tile number: 000103 (process no. = 000000)
(PID.TID 0000.0001) //        WEST: Tile = 000102, Process = 000000, Comm = put
(PID.TID 0000.0001) //                bi = 000006, bj = 000007
(PID.TID 0000.0001) //        EAST: Tile = 000104, Process = 000000, Comm = put
(PID.TID 0000.0001) //                bi = 000008, bj = 000007
(PID.TID 0000.0001) //       SOUTH: Tile = 000087, Process = 000000, Comm = put
(PID.TID 0000.0001) //                bi = 000007, bj = 000006
(PID.TID 0000.0001) //       NORTH: Tile = 000119, Process = 000000, Comm = put
(PID.TID 0000.0001) //                bi = 000007, bj = 000008
(PID.TID 0000.0001) // Tile number: 000104 (process no. = 000000)
(PID.TID 0000.0001) //        WEST: Tile = 000103, Process = 000000, Comm = put
(PID.TID 0000.0001) //                bi = 000007, bj = 000007
(PID.TID 0000.0001) //        EAST: Tile = 000105, Process = 000000, Comm = put
(PID.TID 0000.0001) //                bi = 000009, bj = 000007
(PID.TID 0000.0001) //       SOUTH: Tile = 000088, Process = 000000, Comm = put
(PID.TID 0000.0001) //                bi = 000008, bj = 000006
(PID.TID 0000.0001) //       NORTH: Tile = 000120, Process = 000000, Comm = put
(PID.TID 0000.0001) //                bi = 000008, bj = 000008
(PID.TID 0000.0001) // Tile number: 000105 (process no. = 000000)
(PID.TID 0000.0001) //        WEST: Tile = 000104, Process = 000000, Comm = put
(PID.TID 0000.0001) //                bi = 000008, bj = 000007
(PID.TID 0000.0001) //        EAST: Tile = 000106, Process = 000000, Comm = put
(PID.TID 0000.0001) //                bi = 000010, bj = 000007
(PID.TID 0000.0001) //       SOUTH: Tile = 000089, Process = 000000, Comm = put
(PID.TID 0000.0001) //                bi = 000009, bj = 000006
(PID.TID 0000.0001) //       NORTH: Tile = 000121, Process = 000000, Comm = put
(PID.TID 0000.0001) //                bi = 000009, bj = 000008
(PID.TID 0000.0001) // Tile number: 000106 (process no. = 000000)
(PID.TID 0000.0001) //        WEST: Tile = 000105, Process = 000000, Comm = put
(PID.TID 0000.0001) //                bi = 000009, bj = 000007
(PID.TID 0000.0001) //        EAST: Tile = 000107, Process = 000000, Comm = put
(PID.TID 0000.0001) //                bi = 000011, bj = 000007
(PID.TID 0000.0001) //       SOUTH: Tile = 000090, Process = 000000, Comm = put
(PID.TID 0000.0001) //                bi = 000010, bj = 000006
(PID.TID 0000.0001) //       NORTH: Tile = 000122, Process = 000000, Comm = put
(PID.TID 0000.0001) //                bi = 000010, bj = 000008
(PID.TID 0000.0001) // Tile number: 000107 (process no. = 000000)
(PID.TID 0000.0001) //        WEST: Tile = 000106, Process = 000000, Comm = put
(PID.TID 0000.0001) //                bi = 000010, bj = 000007
(PID.TID 0000.0001) //        EAST: Tile = 000108, Process = 000000, Comm = put
(PID.TID 0000.0001) //                bi = 000012, bj = 000007
(PID.TID 0000.0001) //       SOUTH: Tile = 000091, Process = 000000, Comm = put
(PID.TID 0000.0001) //                bi = 000011, bj = 000006
(PID.TID 0000.0001) //       NORTH: Tile = 000123, Process = 000000, Comm = put
(PID.TID 0000.0001) //                bi = 000011, bj = 000008
(PID.TID 0000.0001) // Tile number: 000108 (process no. = 000000)
(PID.TID 0000.0001) //        WEST: Tile = 000107, Process = 000000, Comm = put
(PID.TID 0000.0001) //                bi = 000011, bj = 000007
(PID.TID 0000.0001) //        EAST: Tile = 000109, Process = 000000, Comm = put
(PID.TID 0000.0001) //                bi = 000013, bj = 000007
(PID.TID 0000.0001) //       SOUTH: Tile = 000092, Process = 000000, Comm = put
(PID.TID 0000.0001) //                bi = 000012, bj = 000006
(PID.TID 0000.0001) //       NORTH: Tile = 000124, Process = 000000, Comm = put
(PID.TID 0000.0001) //                bi = 000012, bj = 000008
(PID.TID 0000.0001) // Tile number: 000109 (process no. = 000000)
(PID.TID 0000.0001) //        WEST: Tile = 000108, Process = 000000, Comm = put
(PID.TID 0000.0001) //                bi = 000012, bj = 000007
(PID.TID 0000.0001) //        EAST: Tile = 000110, Process = 000000, Comm = put
(PID.TID 0000.0001) //                bi = 000014, bj = 000007
(PID.TID 0000.0001) //       SOUTH: Tile = 000093, Process = 000000, Comm = put
(PID.TID 0000.0001) //                bi = 000013, bj = 000006
(PID.TID 0000.0001) //       NORTH: Tile = 000125, Process = 000000, Comm = put
(PID.TID 0000.0001) //                bi = 000013, bj = 000008
(PID.TID 0000.0001) // Tile number: 000110 (process no. = 000000)
(PID.TID 0000.0001) //        WEST: Tile = 000109, Process = 000000, Comm = put
(PID.TID 0000.0001) //                bi = 000013, bj = 000007
(PID.TID 0000.0001) //        EAST: Tile = 000111, Process = 000000, Comm = put
(PID.TID 0000.0001) //                bi = 000015, bj = 000007
(PID.TID 0000.0001) //       SOUTH: Tile = 000094, Process = 000000, Comm = put
(PID.TID 0000.0001) //                bi = 000014, bj = 000006
(PID.TID 0000.0001) //       NORTH: Tile = 000126, Process = 000000, Comm = put
(PID.TID 0000.0001) //                bi = 000014, bj = 000008
(PID.TID 0000.0001) // Tile number: 000111 (process no. = 000000)
(PID.TID 0000.0001) //        WEST: Tile = 000110, Process = 000000, Comm = put
(PID.TID 0000.0001) //                bi = 000014, bj = 000007
(PID.TID 0000.0001) //        EAST: Tile = 000112, Process = 000000, Comm = put
(PID.TID 0000.0001) //                bi = 000016, bj = 000007
(PID.TID 0000.0001) //       SOUTH: Tile = 000095, Process = 000000, Comm = put
(PID.TID 0000.0001) //                bi = 000015, bj = 000006
(PID.TID 0000.0001) //       NORTH: Tile = 000127, Process = 000000, Comm = put
(PID.TID 0000.0001) //                bi = 000015, bj = 000008
(PID.TID 0000.0001) // Tile number: 000112 (process no. = 000000)
(PID.TID 0000.0001) //        WEST: Tile = 000111, Process = 000000, Comm = put
(PID.TID 0000.0001) //                bi = 000015, bj = 000007
(PID.TID 0000.0001) //        EAST: Tile = 000097, Process = 000000, Comm = put
(PID.TID 0000.0001) //                bi = 000001, bj = 000007
(PID.TID 0000.0001) //       SOUTH: Tile = 000096, Process = 000000, Comm = put
(PID.TID 0000.0001) //                bi = 000016, bj = 000006
(PID.TID 0000.0001) //       NORTH: Tile = 000128, Process = 000000, Comm = put
(PID.TID 0000.0001) //                bi = 000016, bj = 000008
(PID.TID 0000.0001) // Tile number: 000113 (process no. = 000000)
(PID.TID 0000.0001) //        WEST: Tile = 000128, Process = 000000, Comm = put
(PID.TID 0000.0001) //                bi = 000016, bj = 000008
(PID.TID 0000.0001) //        EAST: Tile = 000114, Process = 000000, Comm = put
(PID.TID 0000.0001) //                bi = 000002, bj = 000008
(PID.TID 0000.0001) //       SOUTH: Tile = 000097, Process = 000000, Comm = put
(PID.TID 0000.0001) //                bi = 000001, bj = 000007
(PID.TID 0000.0001) //       NORTH: Tile = 000129, Process = 000000, Comm = put
(PID.TID 0000.0001) //                bi = 000001, bj = 000009
(PID.TID 0000.0001) // Tile number: 000114 (process no. = 000000)
(PID.TID 0000.0001) //        WEST: Tile = 000113, Process = 000000, Comm = put
(PID.TID 0000.0001) //                bi = 000001, bj = 000008
(PID.TID 0000.0001) //        EAST: Tile = 000115, Process = 000000, Comm = put
(PID.TID 0000.0001) //                bi = 000003, bj = 000008
(PID.TID 0000.0001) //       SOUTH: Tile = 000098, Process = 000000, Comm = put
(PID.TID 0000.0001) //                bi = 000002, bj = 000007
(PID.TID 0000.0001) //       NORTH: Tile = 000130, Process = 000000, Comm = put
(PID.TID 0000.0001) //                bi = 000002, bj = 000009
(PID.TID 0000.0001) // Tile number: 000115 (process no. = 000000)
(PID.TID 0000.0001) //        WEST: Tile = 000114, Process = 000000, Comm = put
(PID.TID 0000.0001) //                bi = 000002, bj = 000008
(PID.TID 0000.0001) //        EAST: Tile = 000116, Process = 000000, Comm = put
(PID.TID 0000.0001) //                bi = 000004, bj = 000008
(PID.TID 0000.0001) //       SOUTH: Tile = 000099, Process = 000000, Comm = put
(PID.TID 0000.0001) //                bi = 000003, bj = 000007
(PID.TID 0000.0001) //       NORTH: Tile = 000131, Process = 000000, Comm = put
(PID.TID 0000.0001) //                bi = 000003, bj = 000009
(PID.TID 0000.0001) // Tile number: 000116 (process no. = 000000)
(PID.TID 0000.0001) //        WEST: Tile = 000115, Process = 000000, Comm = put
(PID.TID 0000.0001) //                bi = 000003, bj = 000008
(PID.TID 0000.0001) //        EAST: Tile = 000117, Process = 000000, Comm = put
(PID.TID 0000.0001) //                bi = 000005, bj = 000008
(PID.TID 0000.0001) //       SOUTH: Tile = 000100, Process = 000000, Comm = put
(PID.TID 0000.0001) //                bi = 000004, bj = 000007
(PID.TID 0000.0001) //       NORTH: Tile = 000132, Process = 000000, Comm = put
(PID.TID 0000.0001) //                bi = 000004, bj = 000009
(PID.TID 0000.0001) // Tile number: 000117 (process no. = 000000)
(PID.TID 0000.0001) //        WEST: Tile = 000116, Process = 000000, Comm = put
(PID.TID 0000.0001) //                bi = 000004, bj = 000008
(PID.TID 0000.0001) //        EAST: Tile = 000118, Process = 000000, Comm = put
(PID.TID 0000.0001) //                bi = 000006, bj = 000008
(PID.TID 0000.0001) //       SOUTH: Tile = 000101, Process = 000000, Comm = put
(PID.TID 0000.0001) //                bi = 000005, bj = 000007
(PID.TID 0000.0001) //       NORTH: Tile = 000133, Process = 000000, Comm = put
(PID.TID 0000.0001) //                bi = 000005, bj = 000009
(PID.TID 0000.0001) // Tile number: 000118 (process no. = 000000)
(PID.TID 0000.0001) //        WEST: Tile = 000117, Process = 000000, Comm = put
(PID.TID 0000.0001) //                bi = 000005, bj = 000008
(PID.TID 0000.0001) //        EAST: Tile = 000119, Process = 000000, Comm = put
(PID.TID 0000.0001) //                bi = 000007, bj = 000008
(PID.TID 0000.0001) //       SOUTH: Tile = 000102, Process = 000000, Comm = put
(PID.TID 0000.0001) //                bi = 000006, bj = 000007
(PID.TID 0000.0001) //       NORTH: Tile = 000134, Process = 000000, Comm = put
(PID.TID 0000.0001) //                bi = 000006, bj = 000009
(PID.TID 0000.0001) // Tile number: 000119 (process no. = 000000)
(PID.TID 0000.0001) //        WEST: Tile = 000118, Process = 000000, Comm = put
(PID.TID 0000.0001) //                bi = 000006, bj = 000008
(PID.TID 0000.0001) //        EAST: Tile = 000120, Process = 000000, Comm = put
(PID.TID 0000.0001) //                bi = 000008, bj = 000008
(PID.TID 0000.0001) //       SOUTH: Tile = 000103, Process = 000000, Comm = put
(PID.TID 0000.0001) //                bi = 000007, bj = 000007
(PID.TID 0000.0001) //       NORTH: Tile = 000135, Process = 000000, Comm = put
(PID.TID 0000.0001) //                bi = 000007, bj = 000009
(PID.TID 0000.0001) // Tile number: 000120 (process no. = 000000)
(PID.TID 0000.0001) //        WEST: Tile = 000119, Process = 000000, Comm = put
(PID.TID 0000.0001) //                bi = 000007, bj = 000008
(PID.TID 0000.0001) //        EAST: Tile = 000121, Process = 000000, Comm = put
(PID.TID 0000.0001) //                bi = 000009, bj = 000008
(PID.TID 0000.0001) //       SOUTH: Tile = 000104, Process = 000000, Comm = put
(PID.TID 0000.0001) //                bi = 000008, bj = 000007
(PID.TID 0000.0001) //       NORTH: Tile = 000136, Process = 000000, Comm = put
(PID.TID 0000.0001) //                bi = 000008, bj = 000009
(PID.TID 0000.0001) // Tile number: 000121 (process no. = 000000)
(PID.TID 0000.0001) //        WEST: Tile = 000120, Process = 000000, Comm = put
(PID.TID 0000.0001) //                bi = 000008, bj = 000008
(PID.TID 0000.0001) //        EAST: Tile = 000122, Process = 000000, Comm = put
(PID.TID 0000.0001) //                bi = 000010, bj = 000008
(PID.TID 0000.0001) //       SOUTH: Tile = 000105, Process = 000000, Comm = put
(PID.TID 0000.0001) //                bi = 000009, bj = 000007
(PID.TID 0000.0001) //       NORTH: Tile = 000137, Process = 000000, Comm = put
(PID.TID 0000.0001) //                bi = 000009, bj = 000009
(PID.TID 0000.0001) // Tile number: 000122 (process no. = 000000)
(PID.TID 0000.0001) //        WEST: Tile = 000121, Process = 000000, Comm = put
(PID.TID 0000.0001) //                bi = 000009, bj = 000008
(PID.TID 0000.0001) //        EAST: Tile = 000123, Process = 000000, Comm = put
(PID.TID 0000.0001) //                bi = 000011, bj = 000008
(PID.TID 0000.0001) //       SOUTH: Tile = 000106, Process = 000000, Comm = put
(PID.TID 0000.0001) //                bi = 000010, bj = 000007
(PID.TID 0000.0001) //       NORTH: Tile = 000138, Process = 000000, Comm = put
(PID.TID 0000.0001) //                bi = 000010, bj = 000009
(PID.TID 0000.0001) // Tile number: 000123 (process no. = 000000)
(PID.TID 0000.0001) //        WEST: Tile = 000122, Process = 000000, Comm = put
(PID.TID 0000.0001) //                bi = 000010, bj = 000008
(PID.TID 0000.0001) //        EAST: Tile = 000124, Process = 000000, Comm = put
(PID.TID 0000.0001) //                bi = 000012, bj = 000008
(PID.TID 0000.0001) //       SOUTH: Tile = 000107, Process = 000000, Comm = put
(PID.TID 0000.0001) //                bi = 000011, bj = 000007
(PID.TID 0000.0001) //       NORTH: Tile = 000139, Process = 000000, Comm = put
(PID.TID 0000.0001) //                bi = 000011, bj = 000009
(PID.TID 0000.0001) // Tile number: 000124 (process no. = 000000)
(PID.TID 0000.0001) //        WEST: Tile = 000123, Process = 000000, Comm = put
(PID.TID 0000.0001) //                bi = 000011, bj = 000008
(PID.TID 0000.0001) //        EAST: Tile = 000125, Process = 000000, Comm = put
(PID.TID 0000.0001) //                bi = 000013, bj = 000008
(PID.TID 0000.0001) //       SOUTH: Tile = 000108, Process = 000000, Comm = put
(PID.TID 0000.0001) //                bi = 000012, bj = 000007
(PID.TID 0000.0001) //       NORTH: Tile = 000140, Process = 000000, Comm = put
(PID.TID 0000.0001) //                bi = 000012, bj = 000009
(PID.TID 0000.0001) // Tile number: 000125 (process no. = 000000)
(PID.TID 0000.0001) //        WEST: Tile = 000124, Process = 000000, Comm = put
(PID.TID 0000.0001) //                bi = 000012, bj = 000008
(PID.TID 0000.0001) //        EAST: Tile = 000126, Process = 000000, Comm = put
(PID.TID 0000.0001) //                bi = 000014, bj = 000008
(PID.TID 0000.0001) //       SOUTH: Tile = 000109, Process = 000000, Comm = put
(PID.TID 0000.0001) //                bi = 000013, bj = 000007
(PID.TID 0000.0001) //       NORTH: Tile = 000141, Process = 000000, Comm = put
(PID.TID 0000.0001) //                bi = 000013, bj = 000009
(PID.TID 0000.0001) // Tile number: 000126 (process no. = 000000)
(PID.TID 0000.0001) //        WEST: Tile = 000125, Process = 000000, Comm = put
(PID.TID 0000.0001) //                bi = 000013, bj = 000008
(PID.TID 0000.0001) //        EAST: Tile = 000127, Process = 000000, Comm = put
(PID.TID 0000.0001) //                bi = 000015, bj = 000008
(PID.TID 0000.0001) //       SOUTH: Tile = 000110, Process = 000000, Comm = put
(PID.TID 0000.0001) //                bi = 000014, bj = 000007
(PID.TID 0000.0001) //       NORTH: Tile = 000142, Process = 000000, Comm = put
(PID.TID 0000.0001) //                bi = 000014, bj = 000009
(PID.TID 0000.0001) // Tile number: 000127 (process no. = 000000)
(PID.TID 0000.0001) //        WEST: Tile = 000126, Process = 000000, Comm = put
(PID.TID 0000.0001) //                bi = 000014, bj = 000008
(PID.TID 0000.0001) //        EAST: Tile = 000128, Process = 000000, Comm = put
(PID.TID 0000.0001) //                bi = 000016, bj = 000008
(PID.TID 0000.0001) //       SOUTH: Tile = 000111, Process = 000000, Comm = put
(PID.TID 0000.0001) //                bi = 000015, bj = 000007
(PID.TID 0000.0001) //       NORTH: Tile = 000143, Process = 000000, Comm = put
(PID.TID 0000.0001) //                bi = 000015, bj = 000009
(PID.TID 0000.0001) // Tile number: 000128 (process no. = 000000)
(PID.TID 0000.0001) //        WEST: Tile = 000127, Process = 000000, Comm = put
(PID.TID 0000.0001) //                bi = 000015, bj = 000008
(PID.TID 0000.0001) //        EAST: Tile = 000113, Process = 000000, Comm = put
(PID.TID 0000.0001) //                bi = 000001, bj = 000008
(PID.TID 0000.0001) //       SOUTH: Tile = 000112, Process = 000000, Comm = put
(PID.TID 0000.0001) //                bi = 000016, bj = 000007
(PID.TID 0000.0001) //       NORTH: Tile = 000144, Process = 000000, Comm = put
(PID.TID 0000.0001) //                bi = 000016, bj = 000009
(PID.TID 0000.0001) // Tile number: 000129 (process no. = 000000)
(PID.TID 0000.0001) //        WEST: Tile = 000144, Process = 000000, Comm = put
(PID.TID 0000.0001) //                bi = 000016, bj = 000009
(PID.TID 0000.0001) //        EAST: Tile = 000130, Process = 000000, Comm = put
(PID.TID 0000.0001) //                bi = 000002, bj = 000009
(PID.TID 0000.0001) //       SOUTH: Tile = 000113, Process = 000000, Comm = put
(PID.TID 0000.0001) //                bi = 000001, bj = 000008
(PID.TID 0000.0001) //       NORTH: Tile = 000145, Process = 000000, Comm = put
(PID.TID 0000.0001) //                bi = 000001, bj = 000010
(PID.TID 0000.0001) // Tile number: 000130 (process no. = 000000)
(PID.TID 0000.0001) //        WEST: Tile = 000129, Process = 000000, Comm = put
(PID.TID 0000.0001) //                bi = 000001, bj = 000009
(PID.TID 0000.0001) //        EAST: Tile = 000131, Process = 000000, Comm = put
(PID.TID 0000.0001) //                bi = 000003, bj = 000009
(PID.TID 0000.0001) //       SOUTH: Tile = 000114, Process = 000000, Comm = put
(PID.TID 0000.0001) //                bi = 000002, bj = 000008
(PID.TID 0000.0001) //       NORTH: Tile = 000146, Process = 000000, Comm = put
(PID.TID 0000.0001) //                bi = 000002, bj = 000010
(PID.TID 0000.0001) // Tile number: 000131 (process no. = 000000)
(PID.TID 0000.0001) //        WEST: Tile = 000130, Process = 000000, Comm = put
(PID.TID 0000.0001) //                bi = 000002, bj = 000009
(PID.TID 0000.0001) //        EAST: Tile = 000132, Process = 000000, Comm = put
(PID.TID 0000.0001) //                bi = 000004, bj = 000009
(PID.TID 0000.0001) //       SOUTH: Tile = 000115, Process = 000000, Comm = put
(PID.TID 0000.0001) //                bi = 000003, bj = 000008
(PID.TID 0000.0001) //       NORTH: Tile = 000147, Process = 000000, Comm = put
(PID.TID 0000.0001) //                bi = 000003, bj = 000010
(PID.TID 0000.0001) // Tile number: 000132 (process no. = 000000)
(PID.TID 0000.0001) //        WEST: Tile = 000131, Process = 000000, Comm = put
(PID.TID 0000.0001) //                bi = 000003, bj = 000009
(PID.TID 0000.0001) //        EAST: Tile = 000133, Process = 000000, Comm = put
(PID.TID 0000.0001) //                bi = 000005, bj = 000009
(PID.TID 0000.0001) //       SOUTH: Tile = 000116, Process = 000000, Comm = put
(PID.TID 0000.0001) //                bi = 000004, bj = 000008
(PID.TID 0000.0001) //       NORTH: Tile = 000148, Process = 000000, Comm = put
(PID.TID 0000.0001) //                bi = 000004, bj = 000010
(PID.TID 0000.0001) // Tile number: 000133 (process no. = 000000)
(PID.TID 0000.0001) //        WEST: Tile = 000132, Process = 000000, Comm = put
(PID.TID 0000.0001) //                bi = 000004, bj = 000009
(PID.TID 0000.0001) //        EAST: Tile = 000134, Process = 000000, Comm = put
(PID.TID 0000.0001) //                bi = 000006, bj = 000009
(PID.TID 0000.0001) //       SOUTH: Tile = 000117, Process = 000000, Comm = put
(PID.TID 0000.0001) //                bi = 000005, bj = 000008
(PID.TID 0000.0001) //       NORTH: Tile = 000149, Process = 000000, Comm = put
(PID.TID 0000.0001) //                bi = 000005, bj = 000010
(PID.TID 0000.0001) // Tile number: 000134 (process no. = 000000)
(PID.TID 0000.0001) //        WEST: Tile = 000133, Process = 000000, Comm = put
(PID.TID 0000.0001) //                bi = 000005, bj = 000009
(PID.TID 0000.0001) //        EAST: Tile = 000135, Process = 000000, Comm = put
(PID.TID 0000.0001) //                bi = 000007, bj = 000009
(PID.TID 0000.0001) //       SOUTH: Tile = 000118, Process = 000000, Comm = put
(PID.TID 0000.0001) //                bi = 000006, bj = 000008
(PID.TID 0000.0001) //       NORTH: Tile = 000150, Process = 000000, Comm = put
(PID.TID 0000.0001) //                bi = 000006, bj = 000010
(PID.TID 0000.0001) // Tile number: 000135 (process no. = 000000)
(PID.TID 0000.0001) //        WEST: Tile = 000134, Process = 000000, Comm = put
(PID.TID 0000.0001) //                bi = 000006, bj = 000009
(PID.TID 0000.0001) //        EAST: Tile = 000136, Process = 000000, Comm = put
(PID.TID 0000.0001) //                bi = 000008, bj = 000009
(PID.TID 0000.0001) //       SOUTH: Tile = 000119, Process = 000000, Comm = put
(PID.TID 0000.0001) //                bi = 000007, bj = 000008
(PID.TID 0000.0001) //       NORTH: Tile = 000151, Process = 000000, Comm = put
(PID.TID 0000.0001) //                bi = 000007, bj = 000010
(PID.TID 0000.0001) // Tile number: 000136 (process no. = 000000)
(PID.TID 0000.0001) //        WEST: Tile = 000135, Process = 000000, Comm = put
(PID.TID 0000.0001) //                bi = 000007, bj = 000009
(PID.TID 0000.0001) //        EAST: Tile = 000137, Process = 000000, Comm = put
(PID.TID 0000.0001) //                bi = 000009, bj = 000009
(PID.TID 0000.0001) //       SOUTH: Tile = 000120, Process = 000000, Comm = put
(PID.TID 0000.0001) //                bi = 000008, bj = 000008
(PID.TID 0000.0001) //       NORTH: Tile = 000152, Process = 000000, Comm = put
(PID.TID 0000.0001) //                bi = 000008, bj = 000010
(PID.TID 0000.0001) // Tile number: 000137 (process no. = 000000)
(PID.TID 0000.0001) //        WEST: Tile = 000136, Process = 000000, Comm = put
(PID.TID 0000.0001) //                bi = 000008, bj = 000009
(PID.TID 0000.0001) //        EAST: Tile = 000138, Process = 000000, Comm = put
(PID.TID 0000.0001) //                bi = 000010, bj = 000009
(PID.TID 0000.0001) //       SOUTH: Tile = 000121, Process = 000000, Comm = put
(PID.TID 0000.0001) //                bi = 000009, bj = 000008
(PID.TID 0000.0001) //       NORTH: Tile = 000153, Process = 000000, Comm = put
(PID.TID 0000.0001) //                bi = 000009, bj = 000010
(PID.TID 0000.0001) // Tile number: 000138 (process no. = 000000)
(PID.TID 0000.0001) //        WEST: Tile = 000137, Process = 000000, Comm = put
(PID.TID 0000.0001) //                bi = 000009, bj = 000009
(PID.TID 0000.0001) //        EAST: Tile = 000139, Process = 000000, Comm = put
(PID.TID 0000.0001) //                bi = 000011, bj = 000009
(PID.TID 0000.0001) //       SOUTH: Tile = 000122, Process = 000000, Comm = put
(PID.TID 0000.0001) //                bi = 000010, bj = 000008
(PID.TID 0000.0001) //       NORTH: Tile = 000154, Process = 000000, Comm = put
(PID.TID 0000.0001) //                bi = 000010, bj = 000010
(PID.TID 0000.0001) // Tile number: 000139 (process no. = 000000)
(PID.TID 0000.0001) //        WEST: Tile = 000138, Process = 000000, Comm = put
(PID.TID 0000.0001) //                bi = 000010, bj = 000009
(PID.TID 0000.0001) //        EAST: Tile = 000140, Process = 000000, Comm = put
(PID.TID 0000.0001) //                bi = 000012, bj = 000009
(PID.TID 0000.0001) //       SOUTH: Tile = 000123, Process = 000000, Comm = put
(PID.TID 0000.0001) //                bi = 000011, bj = 000008
(PID.TID 0000.0001) //       NORTH: Tile = 000155, Process = 000000, Comm = put
(PID.TID 0000.0001) //                bi = 000011, bj = 000010
(PID.TID 0000.0001) // Tile number: 000140 (process no. = 000000)
(PID.TID 0000.0001) //        WEST: Tile = 000139, Process = 000000, Comm = put
(PID.TID 0000.0001) //                bi = 000011, bj = 000009
(PID.TID 0000.0001) //        EAST: Tile = 000141, Process = 000000, Comm = put
(PID.TID 0000.0001) //                bi = 000013, bj = 000009
(PID.TID 0000.0001) //       SOUTH: Tile = 000124, Process = 000000, Comm = put
(PID.TID 0000.0001) //                bi = 000012, bj = 000008
(PID.TID 0000.0001) //       NORTH: Tile = 000156, Process = 000000, Comm = put
(PID.TID 0000.0001) //                bi = 000012, bj = 000010
(PID.TID 0000.0001) // Tile number: 000141 (process no. = 000000)
(PID.TID 0000.0001) //        WEST: Tile = 000140, Process = 000000, Comm = put
(PID.TID 0000.0001) //                bi = 000012, bj = 000009
(PID.TID 0000.0001) //        EAST: Tile = 000142, Process = 000000, Comm = put
(PID.TID 0000.0001) //                bi = 000014, bj = 000009
(PID.TID 0000.0001) //       SOUTH: Tile = 000125, Process = 000000, Comm = put
(PID.TID 0000.0001) //                bi = 000013, bj = 000008
(PID.TID 0000.0001) //       NORTH: Tile = 000157, Process = 000000, Comm = put
(PID.TID 0000.0001) //                bi = 000013, bj = 000010
(PID.TID 0000.0001) // Tile number: 000142 (process no. = 000000)
(PID.TID 0000.0001) //        WEST: Tile = 000141, Process = 000000, Comm = put
(PID.TID 0000.0001) //                bi = 000013, bj = 000009
(PID.TID 0000.0001) //        EAST: Tile = 000143, Process = 000000, Comm = put
(PID.TID 0000.0001) //                bi = 000015, bj = 000009
(PID.TID 0000.0001) //       SOUTH: Tile = 000126, Process = 000000, Comm = put
(PID.TID 0000.0001) //                bi = 000014, bj = 000008
(PID.TID 0000.0001) //       NORTH: Tile = 000158, Process = 000000, Comm = put
(PID.TID 0000.0001) //                bi = 000014, bj = 000010
(PID.TID 0000.0001) // Tile number: 000143 (process no. = 000000)
(PID.TID 0000.0001) //        WEST: Tile = 000142, Process = 000000, Comm = put
(PID.TID 0000.0001) //                bi = 000014, bj = 000009
(PID.TID 0000.0001) //        EAST: Tile = 000144, Process = 000000, Comm = put
(PID.TID 0000.0001) //                bi = 000016, bj = 000009
(PID.TID 0000.0001) //       SOUTH: Tile = 000127, Process = 000000, Comm = put
(PID.TID 0000.0001) //                bi = 000015, bj = 000008
(PID.TID 0000.0001) //       NORTH: Tile = 000159, Process = 000000, Comm = put
(PID.TID 0000.0001) //                bi = 000015, bj = 000010
(PID.TID 0000.0001) // Tile number: 000144 (process no. = 000000)
(PID.TID 0000.0001) //        WEST: Tile = 000143, Process = 000000, Comm = put
(PID.TID 0000.0001) //                bi = 000015, bj = 000009
(PID.TID 0000.0001) //        EAST: Tile = 000129, Process = 000000, Comm = put
(PID.TID 0000.0001) //                bi = 000001, bj = 000009
(PID.TID 0000.0001) //       SOUTH: Tile = 000128, Process = 000000, Comm = put
(PID.TID 0000.0001) //                bi = 000016, bj = 000008
(PID.TID 0000.0001) //       NORTH: Tile = 000160, Process = 000000, Comm = put
(PID.TID 0000.0001) //                bi = 000016, bj = 000010
(PID.TID 0000.0001) // Tile number: 000145 (process no. = 000000)
(PID.TID 0000.0001) //        WEST: Tile = 000160, Process = 000000, Comm = put
(PID.TID 0000.0001) //                bi = 000016, bj = 000010
(PID.TID 0000.0001) //        EAST: Tile = 000146, Process = 000000, Comm = put
(PID.TID 0000.0001) //                bi = 000002, bj = 000010
(PID.TID 0000.0001) //       SOUTH: Tile = 000129, Process = 000000, Comm = put
(PID.TID 0000.0001) //                bi = 000001, bj = 000009
(PID.TID 0000.0001) //       NORTH: Tile = 000161, Process = 000000, Comm = put
(PID.TID 0000.0001) //                bi = 000001, bj = 000011
(PID.TID 0000.0001) // Tile number: 000146 (process no. = 000000)
(PID.TID 0000.0001) //        WEST: Tile = 000145, Process = 000000, Comm = put
(PID.TID 0000.0001) //                bi = 000001, bj = 000010
(PID.TID 0000.0001) //        EAST: Tile = 000147, Process = 000000, Comm = put
(PID.TID 0000.0001) //                bi = 000003, bj = 000010
(PID.TID 0000.0001) //       SOUTH: Tile = 000130, Process = 000000, Comm = put
(PID.TID 0000.0001) //                bi = 000002, bj = 000009
(PID.TID 0000.0001) //       NORTH: Tile = 000162, Process = 000000, Comm = put
(PID.TID 0000.0001) //                bi = 000002, bj = 000011
(PID.TID 0000.0001) // Tile number: 000147 (process no. = 000000)
(PID.TID 0000.0001) //        WEST: Tile = 000146, Process = 000000, Comm = put
(PID.TID 0000.0001) //                bi = 000002, bj = 000010
(PID.TID 0000.0001) //        EAST: Tile = 000148, Process = 000000, Comm = put
(PID.TID 0000.0001) //                bi = 000004, bj = 000010
(PID.TID 0000.0001) //       SOUTH: Tile = 000131, Process = 000000, Comm = put
(PID.TID 0000.0001) //                bi = 000003, bj = 000009
(PID.TID 0000.0001) //       NORTH: Tile = 000163, Process = 000000, Comm = put
(PID.TID 0000.0001) //                bi = 000003, bj = 000011
(PID.TID 0000.0001) // Tile number: 000148 (process no. = 000000)
(PID.TID 0000.0001) //        WEST: Tile = 000147, Process = 000000, Comm = put
(PID.TID 0000.0001) //                bi = 000003, bj = 000010
(PID.TID 0000.0001) //        EAST: Tile = 000149, Process = 000000, Comm = put
(PID.TID 0000.0001) //                bi = 000005, bj = 000010
(PID.TID 0000.0001) //       SOUTH: Tile = 000132, Process = 000000, Comm = put
(PID.TID 0000.0001) //                bi = 000004, bj = 000009
(PID.TID 0000.0001) //       NORTH: Tile = 000164, Process = 000000, Comm = put
(PID.TID 0000.0001) //                bi = 000004, bj = 000011
(PID.TID 0000.0001) // Tile number: 000149 (process no. = 000000)
(PID.TID 0000.0001) //        WEST: Tile = 000148, Process = 000000, Comm = put
(PID.TID 0000.0001) //                bi = 000004, bj = 000010
(PID.TID 0000.0001) //        EAST: Tile = 000150, Process = 000000, Comm = put
(PID.TID 0000.0001) //                bi = 000006, bj = 000010
(PID.TID 0000.0001) //       SOUTH: Tile = 000133, Process = 000000, Comm = put
(PID.TID 0000.0001) //                bi = 000005, bj = 000009
(PID.TID 0000.0001) //       NORTH: Tile = 000165, Process = 000000, Comm = put
(PID.TID 0000.0001) //                bi = 000005, bj = 000011
(PID.TID 0000.0001) // Tile number: 000150 (process no. = 000000)
(PID.TID 0000.0001) //        WEST: Tile = 000149, Process = 000000, Comm = put
(PID.TID 0000.0001) //                bi = 000005, bj = 000010
(PID.TID 0000.0001) //        EAST: Tile = 000151, Process = 000000, Comm = put
(PID.TID 0000.0001) //                bi = 000007, bj = 000010
(PID.TID 0000.0001) //       SOUTH: Tile = 000134, Process = 000000, Comm = put
(PID.TID 0000.0001) //                bi = 000006, bj = 000009
(PID.TID 0000.0001) //       NORTH: Tile = 000166, Process = 000000, Comm = put
(PID.TID 0000.0001) //                bi = 000006, bj = 000011
(PID.TID 0000.0001) // Tile number: 000151 (process no. = 000000)
(PID.TID 0000.0001) //        WEST: Tile = 000150, Process = 000000, Comm = put
(PID.TID 0000.0001) //                bi = 000006, bj = 000010
(PID.TID 0000.0001) //        EAST: Tile = 000152, Process = 000000, Comm = put
(PID.TID 0000.0001) //                bi = 000008, bj = 000010
(PID.TID 0000.0001) //       SOUTH: Tile = 000135, Process = 000000, Comm = put
(PID.TID 0000.0001) //                bi = 000007, bj = 000009
(PID.TID 0000.0001) //       NORTH: Tile = 000167, Process = 000000, Comm = put
(PID.TID 0000.0001) //                bi = 000007, bj = 000011
(PID.TID 0000.0001) // Tile number: 000152 (process no. = 000000)
(PID.TID 0000.0001) //        WEST: Tile = 000151, Process = 000000, Comm = put
(PID.TID 0000.0001) //                bi = 000007, bj = 000010
(PID.TID 0000.0001) //        EAST: Tile = 000153, Process = 000000, Comm = put
(PID.TID 0000.0001) //                bi = 000009, bj = 000010
(PID.TID 0000.0001) //       SOUTH: Tile = 000136, Process = 000000, Comm = put
(PID.TID 0000.0001) //                bi = 000008, bj = 000009
(PID.TID 0000.0001) //       NORTH: Tile = 000168, Process = 000000, Comm = put
(PID.TID 0000.0001) //                bi = 000008, bj = 000011
(PID.TID 0000.0001) // Tile number: 000153 (process no. = 000000)
(PID.TID 0000.0001) //        WEST: Tile = 000152, Process = 000000, Comm = put
(PID.TID 0000.0001) //                bi = 000008, bj = 000010
(PID.TID 0000.0001) //        EAST: Tile = 000154, Process = 000000, Comm = put
(PID.TID 0000.0001) //                bi = 000010, bj = 000010
(PID.TID 0000.0001) //       SOUTH: Tile = 000137, Process = 000000, Comm = put
(PID.TID 0000.0001) //                bi = 000009, bj = 000009
(PID.TID 0000.0001) //       NORTH: Tile = 000169, Process = 000000, Comm = put
(PID.TID 0000.0001) //                bi = 000009, bj = 000011
(PID.TID 0000.0001) // Tile number: 000154 (process no. = 000000)
(PID.TID 0000.0001) //        WEST: Tile = 000153, Process = 000000, Comm = put
(PID.TID 0000.0001) //                bi = 000009, bj = 000010
(PID.TID 0000.0001) //        EAST: Tile = 000155, Process = 000000, Comm = put
(PID.TID 0000.0001) //                bi = 000011, bj = 000010
(PID.TID 0000.0001) //       SOUTH: Tile = 000138, Process = 000000, Comm = put
(PID.TID 0000.0001) //                bi = 000010, bj = 000009
(PID.TID 0000.0001) //       NORTH: Tile = 000170, Process = 000000, Comm = put
(PID.TID 0000.0001) //                bi = 000010, bj = 000011
(PID.TID 0000.0001) // Tile number: 000155 (process no. = 000000)
(PID.TID 0000.0001) //        WEST: Tile = 000154, Process = 000000, Comm = put
(PID.TID 0000.0001) //                bi = 000010, bj = 000010
(PID.TID 0000.0001) //        EAST: Tile = 000156, Process = 000000, Comm = put
(PID.TID 0000.0001) //                bi = 000012, bj = 000010
(PID.TID 0000.0001) //       SOUTH: Tile = 000139, Process = 000000, Comm = put
(PID.TID 0000.0001) //                bi = 000011, bj = 000009
(PID.TID 0000.0001) //       NORTH: Tile = 000171, Process = 000000, Comm = put
(PID.TID 0000.0001) //                bi = 000011, bj = 000011
(PID.TID 0000.0001) // Tile number: 000156 (process no. = 000000)
(PID.TID 0000.0001) //        WEST: Tile = 000155, Process = 000000, Comm = put
(PID.TID 0000.0001) //                bi = 000011, bj = 000010
(PID.TID 0000.0001) //        EAST: Tile = 000157, Process = 000000, Comm = put
(PID.TID 0000.0001) //                bi = 000013, bj = 000010
(PID.TID 0000.0001) //       SOUTH: Tile = 000140, Process = 000000, Comm = put
(PID.TID 0000.0001) //                bi = 000012, bj = 000009
(PID.TID 0000.0001) //       NORTH: Tile = 000172, Process = 000000, Comm = put
(PID.TID 0000.0001) //                bi = 000012, bj = 000011
(PID.TID 0000.0001) // Tile number: 000157 (process no. = 000000)
(PID.TID 0000.0001) //        WEST: Tile = 000156, Process = 000000, Comm = put
(PID.TID 0000.0001) //                bi = 000012, bj = 000010
(PID.TID 0000.0001) //        EAST: Tile = 000158, Process = 000000, Comm = put
(PID.TID 0000.0001) //                bi = 000014, bj = 000010
(PID.TID 0000.0001) //       SOUTH: Tile = 000141, Process = 000000, Comm = put
(PID.TID 0000.0001) //                bi = 000013, bj = 000009
(PID.TID 0000.0001) //       NORTH: Tile = 000173, Process = 000000, Comm = put
(PID.TID 0000.0001) //                bi = 000013, bj = 000011
(PID.TID 0000.0001) // Tile number: 000158 (process no. = 000000)
(PID.TID 0000.0001) //        WEST: Tile = 000157, Process = 000000, Comm = put
(PID.TID 0000.0001) //                bi = 000013, bj = 000010
(PID.TID 0000.0001) //        EAST: Tile = 000159, Process = 000000, Comm = put
(PID.TID 0000.0001) //                bi = 000015, bj = 000010
(PID.TID 0000.0001) //       SOUTH: Tile = 000142, Process = 000000, Comm = put
(PID.TID 0000.0001) //                bi = 000014, bj = 000009
(PID.TID 0000.0001) //       NORTH: Tile = 000174, Process = 000000, Comm = put
(PID.TID 0000.0001) //                bi = 000014, bj = 000011
(PID.TID 0000.0001) // Tile number: 000159 (process no. = 000000)
(PID.TID 0000.0001) //        WEST: Tile = 000158, Process = 000000, Comm = put
(PID.TID 0000.0001) //                bi = 000014, bj = 000010
(PID.TID 0000.0001) //        EAST: Tile = 000160, Process = 000000, Comm = put
(PID.TID 0000.0001) //                bi = 000016, bj = 000010
(PID.TID 0000.0001) //       SOUTH: Tile = 000143, Process = 000000, Comm = put
(PID.TID 0000.0001) //                bi = 000015, bj = 000009
(PID.TID 0000.0001) //       NORTH: Tile = 000175, Process = 000000, Comm = put
(PID.TID 0000.0001) //                bi = 000015, bj = 000011
(PID.TID 0000.0001) // Tile number: 000160 (process no. = 000000)
(PID.TID 0000.0001) //        WEST: Tile = 000159, Process = 000000, Comm = put
(PID.TID 0000.0001) //                bi = 000015, bj = 000010
(PID.TID 0000.0001) //        EAST: Tile = 000145, Process = 000000, Comm = put
(PID.TID 0000.0001) //                bi = 000001, bj = 000010
(PID.TID 0000.0001) //       SOUTH: Tile = 000144, Process = 000000, Comm = put
(PID.TID 0000.0001) //                bi = 000016, bj = 000009
(PID.TID 0000.0001) //       NORTH: Tile = 000176, Process = 000000, Comm = put
(PID.TID 0000.0001) //                bi = 000016, bj = 000011
(PID.TID 0000.0001) // Tile number: 000161 (process no. = 000000)
(PID.TID 0000.0001) //        WEST: Tile = 000176, Process = 000000, Comm = put
(PID.TID 0000.0001) //                bi = 000016, bj = 000011
(PID.TID 0000.0001) //        EAST: Tile = 000162, Process = 000000, Comm = put
(PID.TID 0000.0001) //                bi = 000002, bj = 000011
(PID.TID 0000.0001) //       SOUTH: Tile = 000145, Process = 000000, Comm = put
(PID.TID 0000.0001) //                bi = 000001, bj = 000010
(PID.TID 0000.0001) //       NORTH: Tile = 000177, Process = 000000, Comm = put
(PID.TID 0000.0001) //                bi = 000001, bj = 000012
(PID.TID 0000.0001) // Tile number: 000162 (process no. = 000000)
(PID.TID 0000.0001) //        WEST: Tile = 000161, Process = 000000, Comm = put
(PID.TID 0000.0001) //                bi = 000001, bj = 000011
(PID.TID 0000.0001) //        EAST: Tile = 000163, Process = 000000, Comm = put
(PID.TID 0000.0001) //                bi = 000003, bj = 000011
(PID.TID 0000.0001) //       SOUTH: Tile = 000146, Process = 000000, Comm = put
(PID.TID 0000.0001) //                bi = 000002, bj = 000010
(PID.TID 0000.0001) //       NORTH: Tile = 000178, Process = 000000, Comm = put
(PID.TID 0000.0001) //                bi = 000002, bj = 000012
(PID.TID 0000.0001) // Tile number: 000163 (process no. = 000000)
(PID.TID 0000.0001) //        WEST: Tile = 000162, Process = 000000, Comm = put
(PID.TID 0000.0001) //                bi = 000002, bj = 000011
(PID.TID 0000.0001) //        EAST: Tile = 000164, Process = 000000, Comm = put
(PID.TID 0000.0001) //                bi = 000004, bj = 000011
(PID.TID 0000.0001) //       SOUTH: Tile = 000147, Process = 000000, Comm = put
(PID.TID 0000.0001) //                bi = 000003, bj = 000010
(PID.TID 0000.0001) //       NORTH: Tile = 000179, Process = 000000, Comm = put
(PID.TID 0000.0001) //                bi = 000003, bj = 000012
(PID.TID 0000.0001) // Tile number: 000164 (process no. = 000000)
(PID.TID 0000.0001) //        WEST: Tile = 000163, Process = 000000, Comm = put
(PID.TID 0000.0001) //                bi = 000003, bj = 000011
(PID.TID 0000.0001) //        EAST: Tile = 000165, Process = 000000, Comm = put
(PID.TID 0000.0001) //                bi = 000005, bj = 000011
(PID.TID 0000.0001) //       SOUTH: Tile = 000148, Process = 000000, Comm = put
(PID.TID 0000.0001) //                bi = 000004, bj = 000010
(PID.TID 0000.0001) //       NORTH: Tile = 000180, Process = 000000, Comm = put
(PID.TID 0000.0001) //                bi = 000004, bj = 000012
(PID.TID 0000.0001) // Tile number: 000165 (process no. = 000000)
(PID.TID 0000.0001) //        WEST: Tile = 000164, Process = 000000, Comm = put
(PID.TID 0000.0001) //                bi = 000004, bj = 000011
(PID.TID 0000.0001) //        EAST: Tile = 000166, Process = 000000, Comm = put
(PID.TID 0000.0001) //                bi = 000006, bj = 000011
(PID.TID 0000.0001) //       SOUTH: Tile = 000149, Process = 000000, Comm = put
(PID.TID 0000.0001) //                bi = 000005, bj = 000010
(PID.TID 0000.0001) //       NORTH: Tile = 000181, Process = 000000, Comm = put
(PID.TID 0000.0001) //                bi = 000005, bj = 000012
(PID.TID 0000.0001) // Tile number: 000166 (process no. = 000000)
(PID.TID 0000.0001) //        WEST: Tile = 000165, Process = 000000, Comm = put
(PID.TID 0000.0001) //                bi = 000005, bj = 000011
(PID.TID 0000.0001) //        EAST: Tile = 000167, Process = 000000, Comm = put
(PID.TID 0000.0001) //                bi = 000007, bj = 000011
(PID.TID 0000.0001) //       SOUTH: Tile = 000150, Process = 000000, Comm = put
(PID.TID 0000.0001) //                bi = 000006, bj = 000010
(PID.TID 0000.0001) //       NORTH: Tile = 000182, Process = 000000, Comm = put
(PID.TID 0000.0001) //                bi = 000006, bj = 000012
(PID.TID 0000.0001) // Tile number: 000167 (process no. = 000000)
(PID.TID 0000.0001) //        WEST: Tile = 000166, Process = 000000, Comm = put
(PID.TID 0000.0001) //                bi = 000006, bj = 000011
(PID.TID 0000.0001) //        EAST: Tile = 000168, Process = 000000, Comm = put
(PID.TID 0000.0001) //                bi = 000008, bj = 000011
(PID.TID 0000.0001) //       SOUTH: Tile = 000151, Process = 000000, Comm = put
(PID.TID 0000.0001) //                bi = 000007, bj = 000010
(PID.TID 0000.0001) //       NORTH: Tile = 000183, Process = 000000, Comm = put
(PID.TID 0000.0001) //                bi = 000007, bj = 000012
(PID.TID 0000.0001) // Tile number: 000168 (process no. = 000000)
(PID.TID 0000.0001) //        WEST: Tile = 000167, Process = 000000, Comm = put
(PID.TID 0000.0001) //                bi = 000007, bj = 000011
(PID.TID 0000.0001) //        EAST: Tile = 000169, Process = 000000, Comm = put
(PID.TID 0000.0001) //                bi = 000009, bj = 000011
(PID.TID 0000.0001) //       SOUTH: Tile = 000152, Process = 000000, Comm = put
(PID.TID 0000.0001) //                bi = 000008, bj = 000010
(PID.TID 0000.0001) //       NORTH: Tile = 000184, Process = 000000, Comm = put
(PID.TID 0000.0001) //                bi = 000008, bj = 000012
(PID.TID 0000.0001) // Tile number: 000169 (process no. = 000000)
(PID.TID 0000.0001) //        WEST: Tile = 000168, Process = 000000, Comm = put
(PID.TID 0000.0001) //                bi = 000008, bj = 000011
(PID.TID 0000.0001) //        EAST: Tile = 000170, Process = 000000, Comm = put
(PID.TID 0000.0001) //                bi = 000010, bj = 000011
(PID.TID 0000.0001) //       SOUTH: Tile = 000153, Process = 000000, Comm = put
(PID.TID 0000.0001) //                bi = 000009, bj = 000010
(PID.TID 0000.0001) //       NORTH: Tile = 000185, Process = 000000, Comm = put
(PID.TID 0000.0001) //                bi = 000009, bj = 000012
(PID.TID 0000.0001) // Tile number: 000170 (process no. = 000000)
(PID.TID 0000.0001) //        WEST: Tile = 000169, Process = 000000, Comm = put
(PID.TID 0000.0001) //                bi = 000009, bj = 000011
(PID.TID 0000.0001) //        EAST: Tile = 000171, Process = 000000, Comm = put
(PID.TID 0000.0001) //                bi = 000011, bj = 000011
(PID.TID 0000.0001) //       SOUTH: Tile = 000154, Process = 000000, Comm = put
(PID.TID 0000.0001) //                bi = 000010, bj = 000010
(PID.TID 0000.0001) //       NORTH: Tile = 000186, Process = 000000, Comm = put
(PID.TID 0000.0001) //                bi = 000010, bj = 000012
(PID.TID 0000.0001) // Tile number: 000171 (process no. = 000000)
(PID.TID 0000.0001) //        WEST: Tile = 000170, Process = 000000, Comm = put
(PID.TID 0000.0001) //                bi = 000010, bj = 000011
(PID.TID 0000.0001) //        EAST: Tile = 000172, Process = 000000, Comm = put
(PID.TID 0000.0001) //                bi = 000012, bj = 000011
(PID.TID 0000.0001) //       SOUTH: Tile = 000155, Process = 000000, Comm = put
(PID.TID 0000.0001) //                bi = 000011, bj = 000010
(PID.TID 0000.0001) //       NORTH: Tile = 000187, Process = 000000, Comm = put
(PID.TID 0000.0001) //                bi = 000011, bj = 000012
(PID.TID 0000.0001) // Tile number: 000172 (process no. = 000000)
(PID.TID 0000.0001) //        WEST: Tile = 000171, Process = 000000, Comm = put
(PID.TID 0000.0001) //                bi = 000011, bj = 000011
(PID.TID 0000.0001) //        EAST: Tile = 000173, Process = 000000, Comm = put
(PID.TID 0000.0001) //                bi = 000013, bj = 000011
(PID.TID 0000.0001) //       SOUTH: Tile = 000156, Process = 000000, Comm = put
(PID.TID 0000.0001) //                bi = 000012, bj = 000010
(PID.TID 0000.0001) //       NORTH: Tile = 000188, Process = 000000, Comm = put
(PID.TID 0000.0001) //                bi = 000012, bj = 000012
(PID.TID 0000.0001) // Tile number: 000173 (process no. = 000000)
(PID.TID 0000.0001) //        WEST: Tile = 000172, Process = 000000, Comm = put
(PID.TID 0000.0001) //                bi = 000012, bj = 000011
(PID.TID 0000.0001) //        EAST: Tile = 000174, Process = 000000, Comm = put
(PID.TID 0000.0001) //                bi = 000014, bj = 000011
(PID.TID 0000.0001) //       SOUTH: Tile = 000157, Process = 000000, Comm = put
(PID.TID 0000.0001) //                bi = 000013, bj = 000010
(PID.TID 0000.0001) //       NORTH: Tile = 000189, Process = 000000, Comm = put
(PID.TID 0000.0001) //                bi = 000013, bj = 000012
(PID.TID 0000.0001) // Tile number: 000174 (process no. = 000000)
(PID.TID 0000.0001) //        WEST: Tile = 000173, Process = 000000, Comm = put
(PID.TID 0000.0001) //                bi = 000013, bj = 000011
(PID.TID 0000.0001) //        EAST: Tile = 000175, Process = 000000, Comm = put
(PID.TID 0000.0001) //                bi = 000015, bj = 000011
(PID.TID 0000.0001) //       SOUTH: Tile = 000158, Process = 000000, Comm = put
(PID.TID 0000.0001) //                bi = 000014, bj = 000010
(PID.TID 0000.0001) //       NORTH: Tile = 000190, Process = 000000, Comm = put
(PID.TID 0000.0001) //                bi = 000014, bj = 000012
(PID.TID 0000.0001) // Tile number: 000175 (process no. = 000000)
(PID.TID 0000.0001) //        WEST: Tile = 000174, Process = 000000, Comm = put
(PID.TID 0000.0001) //                bi = 000014, bj = 000011
(PID.TID 0000.0001) //        EAST: Tile = 000176, Process = 000000, Comm = put
(PID.TID 0000.0001) //                bi = 000016, bj = 000011
(PID.TID 0000.0001) //       SOUTH: Tile = 000159, Process = 000000, Comm = put
(PID.TID 0000.0001) //                bi = 000015, bj = 000010
(PID.TID 0000.0001) //       NORTH: Tile = 000191, Process = 000000, Comm = put
(PID.TID 0000.0001) //                bi = 000015, bj = 000012
(PID.TID 0000.0001) // Tile number: 000176 (process no. = 000000)
(PID.TID 0000.0001) //        WEST: Tile = 000175, Process = 000000, Comm = put
(PID.TID 0000.0001) //                bi = 000015, bj = 000011
(PID.TID 0000.0001) //        EAST: Tile = 000161, Process = 000000, Comm = put
(PID.TID 0000.0001) //                bi = 000001, bj = 000011
(PID.TID 0000.0001) //       SOUTH: Tile = 000160, Process = 000000, Comm = put
(PID.TID 0000.0001) //                bi = 000016, bj = 000010
(PID.TID 0000.0001) //       NORTH: Tile = 000192, Process = 000000, Comm = put
(PID.TID 0000.0001) //                bi = 000016, bj = 000012
(PID.TID 0000.0001) // Tile number: 000177 (process no. = 000000)
(PID.TID 0000.0001) //        WEST: Tile = 000192, Process = 000000, Comm = put
(PID.TID 0000.0001) //                bi = 000016, bj = 000012
(PID.TID 0000.0001) //        EAST: Tile = 000178, Process = 000000, Comm = put
(PID.TID 0000.0001) //                bi = 000002, bj = 000012
(PID.TID 0000.0001) //       SOUTH: Tile = 000161, Process = 000000, Comm = put
(PID.TID 0000.0001) //                bi = 000001, bj = 000011
(PID.TID 0000.0001) //       NORTH: Tile = 000193, Process = 000000, Comm = put
(PID.TID 0000.0001) //                bi = 000001, bj = 000013
(PID.TID 0000.0001) // Tile number: 000178 (process no. = 000000)
(PID.TID 0000.0001) //        WEST: Tile = 000177, Process = 000000, Comm = put
(PID.TID 0000.0001) //                bi = 000001, bj = 000012
(PID.TID 0000.0001) //        EAST: Tile = 000179, Process = 000000, Comm = put
(PID.TID 0000.0001) //                bi = 000003, bj = 000012
(PID.TID 0000.0001) //       SOUTH: Tile = 000162, Process = 000000, Comm = put
(PID.TID 0000.0001) //                bi = 000002, bj = 000011
(PID.TID 0000.0001) //       NORTH: Tile = 000194, Process = 000000, Comm = put
(PID.TID 0000.0001) //                bi = 000002, bj = 000013
(PID.TID 0000.0001) // Tile number: 000179 (process no. = 000000)
(PID.TID 0000.0001) //        WEST: Tile = 000178, Process = 000000, Comm = put
(PID.TID 0000.0001) //                bi = 000002, bj = 000012
(PID.TID 0000.0001) //        EAST: Tile = 000180, Process = 000000, Comm = put
(PID.TID 0000.0001) //                bi = 000004, bj = 000012
(PID.TID 0000.0001) //       SOUTH: Tile = 000163, Process = 000000, Comm = put
(PID.TID 0000.0001) //                bi = 000003, bj = 000011
(PID.TID 0000.0001) //       NORTH: Tile = 000195, Process = 000000, Comm = put
(PID.TID 0000.0001) //                bi = 000003, bj = 000013
(PID.TID 0000.0001) // Tile number: 000180 (process no. = 000000)
(PID.TID 0000.0001) //        WEST: Tile = 000179, Process = 000000, Comm = put
(PID.TID 0000.0001) //                bi = 000003, bj = 000012
(PID.TID 0000.0001) //        EAST: Tile = 000181, Process = 000000, Comm = put
(PID.TID 0000.0001) //                bi = 000005, bj = 000012
(PID.TID 0000.0001) //       SOUTH: Tile = 000164, Process = 000000, Comm = put
(PID.TID 0000.0001) //                bi = 000004, bj = 000011
(PID.TID 0000.0001) //       NORTH: Tile = 000196, Process = 000000, Comm = put
(PID.TID 0000.0001) //                bi = 000004, bj = 000013
(PID.TID 0000.0001) // Tile number: 000181 (process no. = 000000)
(PID.TID 0000.0001) //        WEST: Tile = 000180, Process = 000000, Comm = put
(PID.TID 0000.0001) //                bi = 000004, bj = 000012
(PID.TID 0000.0001) //        EAST: Tile = 000182, Process = 000000, Comm = put
(PID.TID 0000.0001) //                bi = 000006, bj = 000012
(PID.TID 0000.0001) //       SOUTH: Tile = 000165, Process = 000000, Comm = put
(PID.TID 0000.0001) //                bi = 000005, bj = 000011
(PID.TID 0000.0001) //       NORTH: Tile = 000197, Process = 000000, Comm = put
(PID.TID 0000.0001) //                bi = 000005, bj = 000013
(PID.TID 0000.0001) // Tile number: 000182 (process no. = 000000)
(PID.TID 0000.0001) //        WEST: Tile = 000181, Process = 000000, Comm = put
(PID.TID 0000.0001) //                bi = 000005, bj = 000012
(PID.TID 0000.0001) //        EAST: Tile = 000183, Process = 000000, Comm = put
(PID.TID 0000.0001) //                bi = 000007, bj = 000012
(PID.TID 0000.0001) //       SOUTH: Tile = 000166, Process = 000000, Comm = put
(PID.TID 0000.0001) //                bi = 000006, bj = 000011
(PID.TID 0000.0001) //       NORTH: Tile = 000198, Process = 000000, Comm = put
(PID.TID 0000.0001) //                bi = 000006, bj = 000013
(PID.TID 0000.0001) // Tile number: 000183 (process no. = 000000)
(PID.TID 0000.0001) //        WEST: Tile = 000182, Process = 000000, Comm = put
(PID.TID 0000.0001) //                bi = 000006, bj = 000012
(PID.TID 0000.0001) //        EAST: Tile = 000184, Process = 000000, Comm = put
(PID.TID 0000.0001) //                bi = 000008, bj = 000012
(PID.TID 0000.0001) //       SOUTH: Tile = 000167, Process = 000000, Comm = put
(PID.TID 0000.0001) //                bi = 000007, bj = 000011
(PID.TID 0000.0001) //       NORTH: Tile = 000199, Process = 000000, Comm = put
(PID.TID 0000.0001) //                bi = 000007, bj = 000013
(PID.TID 0000.0001) // Tile number: 000184 (process no. = 000000)
(PID.TID 0000.0001) //        WEST: Tile = 000183, Process = 000000, Comm = put
(PID.TID 0000.0001) //                bi = 000007, bj = 000012
(PID.TID 0000.0001) //        EAST: Tile = 000185, Process = 000000, Comm = put
(PID.TID 0000.0001) //                bi = 000009, bj = 000012
(PID.TID 0000.0001) //       SOUTH: Tile = 000168, Process = 000000, Comm = put
(PID.TID 0000.0001) //                bi = 000008, bj = 000011
(PID.TID 0000.0001) //       NORTH: Tile = 000200, Process = 000000, Comm = put
(PID.TID 0000.0001) //                bi = 000008, bj = 000013
(PID.TID 0000.0001) // Tile number: 000185 (process no. = 000000)
(PID.TID 0000.0001) //        WEST: Tile = 000184, Process = 000000, Comm = put
(PID.TID 0000.0001) //                bi = 000008, bj = 000012
(PID.TID 0000.0001) //        EAST: Tile = 000186, Process = 000000, Comm = put
(PID.TID 0000.0001) //                bi = 000010, bj = 000012
(PID.TID 0000.0001) //       SOUTH: Tile = 000169, Process = 000000, Comm = put
(PID.TID 0000.0001) //                bi = 000009, bj = 000011
(PID.TID 0000.0001) //       NORTH: Tile = 000201, Process = 000000, Comm = put
(PID.TID 0000.0001) //                bi = 000009, bj = 000013
(PID.TID 0000.0001) // Tile number: 000186 (process no. = 000000)
(PID.TID 0000.0001) //        WEST: Tile = 000185, Process = 000000, Comm = put
(PID.TID 0000.0001) //                bi = 000009, bj = 000012
(PID.TID 0000.0001) //        EAST: Tile = 000187, Process = 000000, Comm = put
(PID.TID 0000.0001) //                bi = 000011, bj = 000012
(PID.TID 0000.0001) //       SOUTH: Tile = 000170, Process = 000000, Comm = put
(PID.TID 0000.0001) //                bi = 000010, bj = 000011
(PID.TID 0000.0001) //       NORTH: Tile = 000202, Process = 000000, Comm = put
(PID.TID 0000.0001) //                bi = 000010, bj = 000013
(PID.TID 0000.0001) // Tile number: 000187 (process no. = 000000)
(PID.TID 0000.0001) //        WEST: Tile = 000186, Process = 000000, Comm = put
(PID.TID 0000.0001) //                bi = 000010, bj = 000012
(PID.TID 0000.0001) //        EAST: Tile = 000188, Process = 000000, Comm = put
(PID.TID 0000.0001) //                bi = 000012, bj = 000012
(PID.TID 0000.0001) //       SOUTH: Tile = 000171, Process = 000000, Comm = put
(PID.TID 0000.0001) //                bi = 000011, bj = 000011
(PID.TID 0000.0001) //       NORTH: Tile = 000203, Process = 000000, Comm = put
(PID.TID 0000.0001) //                bi = 000011, bj = 000013
(PID.TID 0000.0001) // Tile number: 000188 (process no. = 000000)
(PID.TID 0000.0001) //        WEST: Tile = 000187, Process = 000000, Comm = put
(PID.TID 0000.0001) //                bi = 000011, bj = 000012
(PID.TID 0000.0001) //        EAST: Tile = 000189, Process = 000000, Comm = put
(PID.TID 0000.0001) //                bi = 000013, bj = 000012
(PID.TID 0000.0001) //       SOUTH: Tile = 000172, Process = 000000, Comm = put
(PID.TID 0000.0001) //                bi = 000012, bj = 000011
(PID.TID 0000.0001) //       NORTH: Tile = 000204, Process = 000000, Comm = put
(PID.TID 0000.0001) //                bi = 000012, bj = 000013
(PID.TID 0000.0001) // Tile number: 000189 (process no. = 000000)
(PID.TID 0000.0001) //        WEST: Tile = 000188, Process = 000000, Comm = put
(PID.TID 0000.0001) //                bi = 000012, bj = 000012
(PID.TID 0000.0001) //        EAST: Tile = 000190, Process = 000000, Comm = put
(PID.TID 0000.0001) //                bi = 000014, bj = 000012
(PID.TID 0000.0001) //       SOUTH: Tile = 000173, Process = 000000, Comm = put
(PID.TID 0000.0001) //                bi = 000013, bj = 000011
(PID.TID 0000.0001) //       NORTH: Tile = 000205, Process = 000000, Comm = put
(PID.TID 0000.0001) //                bi = 000013, bj = 000013
(PID.TID 0000.0001) // Tile number: 000190 (process no. = 000000)
(PID.TID 0000.0001) //        WEST: Tile = 000189, Process = 000000, Comm = put
(PID.TID 0000.0001) //                bi = 000013, bj = 000012
(PID.TID 0000.0001) //        EAST: Tile = 000191, Process = 000000, Comm = put
(PID.TID 0000.0001) //                bi = 000015, bj = 000012
(PID.TID 0000.0001) //       SOUTH: Tile = 000174, Process = 000000, Comm = put
(PID.TID 0000.0001) //                bi = 000014, bj = 000011
(PID.TID 0000.0001) //       NORTH: Tile = 000206, Process = 000000, Comm = put
(PID.TID 0000.0001) //                bi = 000014, bj = 000013
(PID.TID 0000.0001) // Tile number: 000191 (process no. = 000000)
(PID.TID 0000.0001) //        WEST: Tile = 000190, Process = 000000, Comm = put
(PID.TID 0000.0001) //                bi = 000014, bj = 000012
(PID.TID 0000.0001) //        EAST: Tile = 000192, Process = 000000, Comm = put
(PID.TID 0000.0001) //                bi = 000016, bj = 000012
(PID.TID 0000.0001) //       SOUTH: Tile = 000175, Process = 000000, Comm = put
(PID.TID 0000.0001) //                bi = 000015, bj = 000011
(PID.TID 0000.0001) //       NORTH: Tile = 000207, Process = 000000, Comm = put
(PID.TID 0000.0001) //                bi = 000015, bj = 000013
(PID.TID 0000.0001) // Tile number: 000192 (process no. = 000000)
(PID.TID 0000.0001) //        WEST: Tile = 000191, Process = 000000, Comm = put
(PID.TID 0000.0001) //                bi = 000015, bj = 000012
(PID.TID 0000.0001) //        EAST: Tile = 000177, Process = 000000, Comm = put
(PID.TID 0000.0001) //                bi = 000001, bj = 000012
(PID.TID 0000.0001) //       SOUTH: Tile = 000176, Process = 000000, Comm = put
(PID.TID 0000.0001) //                bi = 000016, bj = 000011
(PID.TID 0000.0001) //       NORTH: Tile = 000208, Process = 000000, Comm = put
(PID.TID 0000.0001) //                bi = 000016, bj = 000013
(PID.TID 0000.0001) // Tile number: 000193 (process no. = 000000)
(PID.TID 0000.0001) //        WEST: Tile = 000208, Process = 000000, Comm = put
(PID.TID 0000.0001) //                bi = 000016, bj = 000013
(PID.TID 0000.0001) //        EAST: Tile = 000194, Process = 000000, Comm = put
(PID.TID 0000.0001) //                bi = 000002, bj = 000013
(PID.TID 0000.0001) //       SOUTH: Tile = 000177, Process = 000000, Comm = put
(PID.TID 0000.0001) //                bi = 000001, bj = 000012
(PID.TID 0000.0001) //       NORTH: Tile = 000209, Process = 000000, Comm = put
(PID.TID 0000.0001) //                bi = 000001, bj = 000014
(PID.TID 0000.0001) // Tile number: 000194 (process no. = 000000)
(PID.TID 0000.0001) //        WEST: Tile = 000193, Process = 000000, Comm = put
(PID.TID 0000.0001) //                bi = 000001, bj = 000013
(PID.TID 0000.0001) //        EAST: Tile = 000195, Process = 000000, Comm = put
(PID.TID 0000.0001) //                bi = 000003, bj = 000013
(PID.TID 0000.0001) //       SOUTH: Tile = 000178, Process = 000000, Comm = put
(PID.TID 0000.0001) //                bi = 000002, bj = 000012
(PID.TID 0000.0001) //       NORTH: Tile = 000210, Process = 000000, Comm = put
(PID.TID 0000.0001) //                bi = 000002, bj = 000014
(PID.TID 0000.0001) // Tile number: 000195 (process no. = 000000)
(PID.TID 0000.0001) //        WEST: Tile = 000194, Process = 000000, Comm = put
(PID.TID 0000.0001) //                bi = 000002, bj = 000013
(PID.TID 0000.0001) //        EAST: Tile = 000196, Process = 000000, Comm = put
(PID.TID 0000.0001) //                bi = 000004, bj = 000013
(PID.TID 0000.0001) //       SOUTH: Tile = 000179, Process = 000000, Comm = put
(PID.TID 0000.0001) //                bi = 000003, bj = 000012
(PID.TID 0000.0001) //       NORTH: Tile = 000211, Process = 000000, Comm = put
(PID.TID 0000.0001) //                bi = 000003, bj = 000014
(PID.TID 0000.0001) // Tile number: 000196 (process no. = 000000)
(PID.TID 0000.0001) //        WEST: Tile = 000195, Process = 000000, Comm = put
(PID.TID 0000.0001) //                bi = 000003, bj = 000013
(PID.TID 0000.0001) //        EAST: Tile = 000197, Process = 000000, Comm = put
(PID.TID 0000.0001) //                bi = 000005, bj = 000013
(PID.TID 0000.0001) //       SOUTH: Tile = 000180, Process = 000000, Comm = put
(PID.TID 0000.0001) //                bi = 000004, bj = 000012
(PID.TID 0000.0001) //       NORTH: Tile = 000212, Process = 000000, Comm = put
(PID.TID 0000.0001) //                bi = 000004, bj = 000014
(PID.TID 0000.0001) // Tile number: 000197 (process no. = 000000)
(PID.TID 0000.0001) //        WEST: Tile = 000196, Process = 000000, Comm = put
(PID.TID 0000.0001) //                bi = 000004, bj = 000013
(PID.TID 0000.0001) //        EAST: Tile = 000198, Process = 000000, Comm = put
(PID.TID 0000.0001) //                bi = 000006, bj = 000013
(PID.TID 0000.0001) //       SOUTH: Tile = 000181, Process = 000000, Comm = put
(PID.TID 0000.0001) //                bi = 000005, bj = 000012
(PID.TID 0000.0001) //       NORTH: Tile = 000213, Process = 000000, Comm = put
(PID.TID 0000.0001) //                bi = 000005, bj = 000014
(PID.TID 0000.0001) // Tile number: 000198 (process no. = 000000)
(PID.TID 0000.0001) //        WEST: Tile = 000197, Process = 000000, Comm = put
(PID.TID 0000.0001) //                bi = 000005, bj = 000013
(PID.TID 0000.0001) //        EAST: Tile = 000199, Process = 000000, Comm = put
(PID.TID 0000.0001) //                bi = 000007, bj = 000013
(PID.TID 0000.0001) //       SOUTH: Tile = 000182, Process = 000000, Comm = put
(PID.TID 0000.0001) //                bi = 000006, bj = 000012
(PID.TID 0000.0001) //       NORTH: Tile = 000214, Process = 000000, Comm = put
(PID.TID 0000.0001) //                bi = 000006, bj = 000014
(PID.TID 0000.0001) // Tile number: 000199 (process no. = 000000)
(PID.TID 0000.0001) //        WEST: Tile = 000198, Process = 000000, Comm = put
(PID.TID 0000.0001) //                bi = 000006, bj = 000013
(PID.TID 0000.0001) //        EAST: Tile = 000200, Process = 000000, Comm = put
(PID.TID 0000.0001) //                bi = 000008, bj = 000013
(PID.TID 0000.0001) //       SOUTH: Tile = 000183, Process = 000000, Comm = put
(PID.TID 0000.0001) //                bi = 000007, bj = 000012
(PID.TID 0000.0001) //       NORTH: Tile = 000215, Process = 000000, Comm = put
(PID.TID 0000.0001) //                bi = 000007, bj = 000014
(PID.TID 0000.0001) // Tile number: 000200 (process no. = 000000)
(PID.TID 0000.0001) //        WEST: Tile = 000199, Process = 000000, Comm = put
(PID.TID 0000.0001) //                bi = 000007, bj = 000013
(PID.TID 0000.0001) //        EAST: Tile = 000201, Process = 000000, Comm = put
(PID.TID 0000.0001) //                bi = 000009, bj = 000013
(PID.TID 0000.0001) //       SOUTH: Tile = 000184, Process = 000000, Comm = put
(PID.TID 0000.0001) //                bi = 000008, bj = 000012
(PID.TID 0000.0001) //       NORTH: Tile = 000216, Process = 000000, Comm = put
(PID.TID 0000.0001) //                bi = 000008, bj = 000014
(PID.TID 0000.0001) // Tile number: 000201 (process no. = 000000)
(PID.TID 0000.0001) //        WEST: Tile = 000200, Process = 000000, Comm = put
(PID.TID 0000.0001) //                bi = 000008, bj = 000013
(PID.TID 0000.0001) //        EAST: Tile = 000202, Process = 000000, Comm = put
(PID.TID 0000.0001) //                bi = 000010, bj = 000013
(PID.TID 0000.0001) //       SOUTH: Tile = 000185, Process = 000000, Comm = put
(PID.TID 0000.0001) //                bi = 000009, bj = 000012
(PID.TID 0000.0001) //       NORTH: Tile = 000217, Process = 000000, Comm = put
(PID.TID 0000.0001) //                bi = 000009, bj = 000014
(PID.TID 0000.0001) // Tile number: 000202 (process no. = 000000)
(PID.TID 0000.0001) //        WEST: Tile = 000201, Process = 000000, Comm = put
(PID.TID 0000.0001) //                bi = 000009, bj = 000013
(PID.TID 0000.0001) //        EAST: Tile = 000203, Process = 000000, Comm = put
(PID.TID 0000.0001) //                bi = 000011, bj = 000013
(PID.TID 0000.0001) //       SOUTH: Tile = 000186, Process = 000000, Comm = put
(PID.TID 0000.0001) //                bi = 000010, bj = 000012
(PID.TID 0000.0001) //       NORTH: Tile = 000218, Process = 000000, Comm = put
(PID.TID 0000.0001) //                bi = 000010, bj = 000014
(PID.TID 0000.0001) // Tile number: 000203 (process no. = 000000)
(PID.TID 0000.0001) //        WEST: Tile = 000202, Process = 000000, Comm = put
(PID.TID 0000.0001) //                bi = 000010, bj = 000013
(PID.TID 0000.0001) //        EAST: Tile = 000204, Process = 000000, Comm = put
(PID.TID 0000.0001) //                bi = 000012, bj = 000013
(PID.TID 0000.0001) //       SOUTH: Tile = 000187, Process = 000000, Comm = put
(PID.TID 0000.0001) //                bi = 000011, bj = 000012
(PID.TID 0000.0001) //       NORTH: Tile = 000219, Process = 000000, Comm = put
(PID.TID 0000.0001) //                bi = 000011, bj = 000014
(PID.TID 0000.0001) // Tile number: 000204 (process no. = 000000)
(PID.TID 0000.0001) //        WEST: Tile = 000203, Process = 000000, Comm = put
(PID.TID 0000.0001) //                bi = 000011, bj = 000013
(PID.TID 0000.0001) //        EAST: Tile = 000205, Process = 000000, Comm = put
(PID.TID 0000.0001) //                bi = 000013, bj = 000013
(PID.TID 0000.0001) //       SOUTH: Tile = 000188, Process = 000000, Comm = put
(PID.TID 0000.0001) //                bi = 000012, bj = 000012
(PID.TID 0000.0001) //       NORTH: Tile = 000220, Process = 000000, Comm = put
(PID.TID 0000.0001) //                bi = 000012, bj = 000014
(PID.TID 0000.0001) // Tile number: 000205 (process no. = 000000)
(PID.TID 0000.0001) //        WEST: Tile = 000204, Process = 000000, Comm = put
(PID.TID 0000.0001) //                bi = 000012, bj = 000013
(PID.TID 0000.0001) //        EAST: Tile = 000206, Process = 000000, Comm = put
(PID.TID 0000.0001) //                bi = 000014, bj = 000013
(PID.TID 0000.0001) //       SOUTH: Tile = 000189, Process = 000000, Comm = put
(PID.TID 0000.0001) //                bi = 000013, bj = 000012
(PID.TID 0000.0001) //       NORTH: Tile = 000221, Process = 000000, Comm = put
(PID.TID 0000.0001) //                bi = 000013, bj = 000014
(PID.TID 0000.0001) // Tile number: 000206 (process no. = 000000)
(PID.TID 0000.0001) //        WEST: Tile = 000205, Process = 000000, Comm = put
(PID.TID 0000.0001) //                bi = 000013, bj = 000013
(PID.TID 0000.0001) //        EAST: Tile = 000207, Process = 000000, Comm = put
(PID.TID 0000.0001) //                bi = 000015, bj = 000013
(PID.TID 0000.0001) //       SOUTH: Tile = 000190, Process = 000000, Comm = put
(PID.TID 0000.0001) //                bi = 000014, bj = 000012
(PID.TID 0000.0001) //       NORTH: Tile = 000222, Process = 000000, Comm = put
(PID.TID 0000.0001) //                bi = 000014, bj = 000014
(PID.TID 0000.0001) // Tile number: 000207 (process no. = 000000)
(PID.TID 0000.0001) //        WEST: Tile = 000206, Process = 000000, Comm = put
(PID.TID 0000.0001) //                bi = 000014, bj = 000013
(PID.TID 0000.0001) //        EAST: Tile = 000208, Process = 000000, Comm = put
(PID.TID 0000.0001) //                bi = 000016, bj = 000013
(PID.TID 0000.0001) //       SOUTH: Tile = 000191, Process = 000000, Comm = put
(PID.TID 0000.0001) //                bi = 000015, bj = 000012
(PID.TID 0000.0001) //       NORTH: Tile = 000223, Process = 000000, Comm = put
(PID.TID 0000.0001) //                bi = 000015, bj = 000014
(PID.TID 0000.0001) // Tile number: 000208 (process no. = 000000)
(PID.TID 0000.0001) //        WEST: Tile = 000207, Process = 000000, Comm = put
(PID.TID 0000.0001) //                bi = 000015, bj = 000013
(PID.TID 0000.0001) //        EAST: Tile = 000193, Process = 000000, Comm = put
(PID.TID 0000.0001) //                bi = 000001, bj = 000013
(PID.TID 0000.0001) //       SOUTH: Tile = 000192, Process = 000000, Comm = put
(PID.TID 0000.0001) //                bi = 000016, bj = 000012
(PID.TID 0000.0001) //       NORTH: Tile = 000224, Process = 000000, Comm = put
(PID.TID 0000.0001) //                bi = 000016, bj = 000014
(PID.TID 0000.0001) // Tile number: 000209 (process no. = 000000)
(PID.TID 0000.0001) //        WEST: Tile = 000224, Process = 000000, Comm = put
(PID.TID 0000.0001) //                bi = 000016, bj = 000014
(PID.TID 0000.0001) //        EAST: Tile = 000210, Process = 000000, Comm = put
(PID.TID 0000.0001) //                bi = 000002, bj = 000014
(PID.TID 0000.0001) //       SOUTH: Tile = 000193, Process = 000000, Comm = put
(PID.TID 0000.0001) //                bi = 000001, bj = 000013
(PID.TID 0000.0001) //       NORTH: Tile = 000225, Process = 000000, Comm = put
(PID.TID 0000.0001) //                bi = 000001, bj = 000015
(PID.TID 0000.0001) // Tile number: 000210 (process no. = 000000)
(PID.TID 0000.0001) //        WEST: Tile = 000209, Process = 000000, Comm = put
(PID.TID 0000.0001) //                bi = 000001, bj = 000014
(PID.TID 0000.0001) //        EAST: Tile = 000211, Process = 000000, Comm = put
(PID.TID 0000.0001) //                bi = 000003, bj = 000014
(PID.TID 0000.0001) //       SOUTH: Tile = 000194, Process = 000000, Comm = put
(PID.TID 0000.0001) //                bi = 000002, bj = 000013
(PID.TID 0000.0001) //       NORTH: Tile = 000226, Process = 000000, Comm = put
(PID.TID 0000.0001) //                bi = 000002, bj = 000015
(PID.TID 0000.0001) // Tile number: 000211 (process no. = 000000)
(PID.TID 0000.0001) //        WEST: Tile = 000210, Process = 000000, Comm = put
(PID.TID 0000.0001) //                bi = 000002, bj = 000014
(PID.TID 0000.0001) //        EAST: Tile = 000212, Process = 000000, Comm = put
(PID.TID 0000.0001) //                bi = 000004, bj = 000014
(PID.TID 0000.0001) //       SOUTH: Tile = 000195, Process = 000000, Comm = put
(PID.TID 0000.0001) //                bi = 000003, bj = 000013
(PID.TID 0000.0001) //       NORTH: Tile = 000227, Process = 000000, Comm = put
(PID.TID 0000.0001) //                bi = 000003, bj = 000015
(PID.TID 0000.0001) // Tile number: 000212 (process no. = 000000)
(PID.TID 0000.0001) //        WEST: Tile = 000211, Process = 000000, Comm = put
(PID.TID 0000.0001) //                bi = 000003, bj = 000014
(PID.TID 0000.0001) //        EAST: Tile = 000213, Process = 000000, Comm = put
(PID.TID 0000.0001) //                bi = 000005, bj = 000014
(PID.TID 0000.0001) //       SOUTH: Tile = 000196, Process = 000000, Comm = put
(PID.TID 0000.0001) //                bi = 000004, bj = 000013
(PID.TID 0000.0001) //       NORTH: Tile = 000228, Process = 000000, Comm = put
(PID.TID 0000.0001) //                bi = 000004, bj = 000015
(PID.TID 0000.0001) // Tile number: 000213 (process no. = 000000)
(PID.TID 0000.0001) //        WEST: Tile = 000212, Process = 000000, Comm = put
(PID.TID 0000.0001) //                bi = 000004, bj = 000014
(PID.TID 0000.0001) //        EAST: Tile = 000214, Process = 000000, Comm = put
(PID.TID 0000.0001) //                bi = 000006, bj = 000014
(PID.TID 0000.0001) //       SOUTH: Tile = 000197, Process = 000000, Comm = put
(PID.TID 0000.0001) //                bi = 000005, bj = 000013
(PID.TID 0000.0001) //       NORTH: Tile = 000229, Process = 000000, Comm = put
(PID.TID 0000.0001) //                bi = 000005, bj = 000015
(PID.TID 0000.0001) // Tile number: 000214 (process no. = 000000)
(PID.TID 0000.0001) //        WEST: Tile = 000213, Process = 000000, Comm = put
(PID.TID 0000.0001) //                bi = 000005, bj = 000014
(PID.TID 0000.0001) //        EAST: Tile = 000215, Process = 000000, Comm = put
(PID.TID 0000.0001) //                bi = 000007, bj = 000014
(PID.TID 0000.0001) //       SOUTH: Tile = 000198, Process = 000000, Comm = put
(PID.TID 0000.0001) //                bi = 000006, bj = 000013
(PID.TID 0000.0001) //       NORTH: Tile = 000230, Process = 000000, Comm = put
(PID.TID 0000.0001) //                bi = 000006, bj = 000015
(PID.TID 0000.0001) // Tile number: 000215 (process no. = 000000)
(PID.TID 0000.0001) //        WEST: Tile = 000214, Process = 000000, Comm = put
(PID.TID 0000.0001) //                bi = 000006, bj = 000014
(PID.TID 0000.0001) //        EAST: Tile = 000216, Process = 000000, Comm = put
(PID.TID 0000.0001) //                bi = 000008, bj = 000014
(PID.TID 0000.0001) //       SOUTH: Tile = 000199, Process = 000000, Comm = put
(PID.TID 0000.0001) //                bi = 000007, bj = 000013
(PID.TID 0000.0001) //       NORTH: Tile = 000231, Process = 000000, Comm = put
(PID.TID 0000.0001) //                bi = 000007, bj = 000015
(PID.TID 0000.0001) // Tile number: 000216 (process no. = 000000)
(PID.TID 0000.0001) //        WEST: Tile = 000215, Process = 000000, Comm = put
(PID.TID 0000.0001) //                bi = 000007, bj = 000014
(PID.TID 0000.0001) //        EAST: Tile = 000217, Process = 000000, Comm = put
(PID.TID 0000.0001) //                bi = 000009, bj = 000014
(PID.TID 0000.0001) //       SOUTH: Tile = 000200, Process = 000000, Comm = put
(PID.TID 0000.0001) //                bi = 000008, bj = 000013
(PID.TID 0000.0001) //       NORTH: Tile = 000232, Process = 000000, Comm = put
(PID.TID 0000.0001) //                bi = 000008, bj = 000015
(PID.TID 0000.0001) // Tile number: 000217 (process no. = 000000)
(PID.TID 0000.0001) //        WEST: Tile = 000216, Process = 000000, Comm = put
(PID.TID 0000.0001) //                bi = 000008, bj = 000014
(PID.TID 0000.0001) //        EAST: Tile = 000218, Process = 000000, Comm = put
(PID.TID 0000.0001) //                bi = 000010, bj = 000014
(PID.TID 0000.0001) //       SOUTH: Tile = 000201, Process = 000000, Comm = put
(PID.TID 0000.0001) //                bi = 000009, bj = 000013
(PID.TID 0000.0001) //       NORTH: Tile = 000233, Process = 000000, Comm = put
(PID.TID 0000.0001) //                bi = 000009, bj = 000015
(PID.TID 0000.0001) // Tile number: 000218 (process no. = 000000)
(PID.TID 0000.0001) //        WEST: Tile = 000217, Process = 000000, Comm = put
(PID.TID 0000.0001) //                bi = 000009, bj = 000014
(PID.TID 0000.0001) //        EAST: Tile = 000219, Process = 000000, Comm = put
(PID.TID 0000.0001) //                bi = 000011, bj = 000014
(PID.TID 0000.0001) //       SOUTH: Tile = 000202, Process = 000000, Comm = put
(PID.TID 0000.0001) //                bi = 000010, bj = 000013
(PID.TID 0000.0001) //       NORTH: Tile = 000234, Process = 000000, Comm = put
(PID.TID 0000.0001) //                bi = 000010, bj = 000015
(PID.TID 0000.0001) // Tile number: 000219 (process no. = 000000)
(PID.TID 0000.0001) //        WEST: Tile = 000218, Process = 000000, Comm = put
(PID.TID 0000.0001) //                bi = 000010, bj = 000014
(PID.TID 0000.0001) //        EAST: Tile = 000220, Process = 000000, Comm = put
(PID.TID 0000.0001) //                bi = 000012, bj = 000014
(PID.TID 0000.0001) //       SOUTH: Tile = 000203, Process = 000000, Comm = put
(PID.TID 0000.0001) //                bi = 000011, bj = 000013
(PID.TID 0000.0001) //       NORTH: Tile = 000235, Process = 000000, Comm = put
(PID.TID 0000.0001) //                bi = 000011, bj = 000015
(PID.TID 0000.0001) // Tile number: 000220 (process no. = 000000)
(PID.TID 0000.0001) //        WEST: Tile = 000219, Process = 000000, Comm = put
(PID.TID 0000.0001) //                bi = 000011, bj = 000014
(PID.TID 0000.0001) //        EAST: Tile = 000221, Process = 000000, Comm = put
(PID.TID 0000.0001) //                bi = 000013, bj = 000014
(PID.TID 0000.0001) //       SOUTH: Tile = 000204, Process = 000000, Comm = put
(PID.TID 0000.0001) //                bi = 000012, bj = 000013
(PID.TID 0000.0001) //       NORTH: Tile = 000236, Process = 000000, Comm = put
(PID.TID 0000.0001) //                bi = 000012, bj = 000015
(PID.TID 0000.0001) // Tile number: 000221 (process no. = 000000)
(PID.TID 0000.0001) //        WEST: Tile = 000220, Process = 000000, Comm = put
(PID.TID 0000.0001) //                bi = 000012, bj = 000014
(PID.TID 0000.0001) //        EAST: Tile = 000222, Process = 000000, Comm = put
(PID.TID 0000.0001) //                bi = 000014, bj = 000014
(PID.TID 0000.0001) //       SOUTH: Tile = 000205, Process = 000000, Comm = put
(PID.TID 0000.0001) //                bi = 000013, bj = 000013
(PID.TID 0000.0001) //       NORTH: Tile = 000237, Process = 000000, Comm = put
(PID.TID 0000.0001) //                bi = 000013, bj = 000015
(PID.TID 0000.0001) // Tile number: 000222 (process no. = 000000)
(PID.TID 0000.0001) //        WEST: Tile = 000221, Process = 000000, Comm = put
(PID.TID 0000.0001) //                bi = 000013, bj = 000014
(PID.TID 0000.0001) //        EAST: Tile = 000223, Process = 000000, Comm = put
(PID.TID 0000.0001) //                bi = 000015, bj = 000014
(PID.TID 0000.0001) //       SOUTH: Tile = 000206, Process = 000000, Comm = put
(PID.TID 0000.0001) //                bi = 000014, bj = 000013
(PID.TID 0000.0001) //       NORTH: Tile = 000238, Process = 000000, Comm = put
(PID.TID 0000.0001) //                bi = 000014, bj = 000015
(PID.TID 0000.0001) // Tile number: 000223 (process no. = 000000)
(PID.TID 0000.0001) //        WEST: Tile = 000222, Process = 000000, Comm = put
(PID.TID 0000.0001) //                bi = 000014, bj = 000014
(PID.TID 0000.0001) //        EAST: Tile = 000224, Process = 000000, Comm = put
(PID.TID 0000.0001) //                bi = 000016, bj = 000014
(PID.TID 0000.0001) //       SOUTH: Tile = 000207, Process = 000000, Comm = put
(PID.TID 0000.0001) //                bi = 000015, bj = 000013
(PID.TID 0000.0001) //       NORTH: Tile = 000239, Process = 000000, Comm = put
(PID.TID 0000.0001) //                bi = 000015, bj = 000015
(PID.TID 0000.0001) // Tile number: 000224 (process no. = 000000)
(PID.TID 0000.0001) //        WEST: Tile = 000223, Process = 000000, Comm = put
(PID.TID 0000.0001) //                bi = 000015, bj = 000014
(PID.TID 0000.0001) //        EAST: Tile = 000209, Process = 000000, Comm = put
(PID.TID 0000.0001) //                bi = 000001, bj = 000014
(PID.TID 0000.0001) //       SOUTH: Tile = 000208, Process = 000000, Comm = put
(PID.TID 0000.0001) //                bi = 000016, bj = 000013
(PID.TID 0000.0001) //       NORTH: Tile = 000240, Process = 000000, Comm = put
(PID.TID 0000.0001) //                bi = 000016, bj = 000015
(PID.TID 0000.0001) // Tile number: 000225 (process no. = 000000)
(PID.TID 0000.0001) //        WEST: Tile = 000240, Process = 000000, Comm = put
(PID.TID 0000.0001) //                bi = 000016, bj = 000015
(PID.TID 0000.0001) //        EAST: Tile = 000226, Process = 000000, Comm = put
(PID.TID 0000.0001) //                bi = 000002, bj = 000015
(PID.TID 0000.0001) //       SOUTH: Tile = 000209, Process = 000000, Comm = put
(PID.TID 0000.0001) //                bi = 000001, bj = 000014
(PID.TID 0000.0001) //       NORTH: Tile = 000241, Process = 000000, Comm = put
(PID.TID 0000.0001) //                bi = 000001, bj = 000016
(PID.TID 0000.0001) // Tile number: 000226 (process no. = 000000)
(PID.TID 0000.0001) //        WEST: Tile = 000225, Process = 000000, Comm = put
(PID.TID 0000.0001) //                bi = 000001, bj = 000015
(PID.TID 0000.0001) //        EAST: Tile = 000227, Process = 000000, Comm = put
(PID.TID 0000.0001) //                bi = 000003, bj = 000015
(PID.TID 0000.0001) //       SOUTH: Tile = 000210, Process = 000000, Comm = put
(PID.TID 0000.0001) //                bi = 000002, bj = 000014
(PID.TID 0000.0001) //       NORTH: Tile = 000242, Process = 000000, Comm = put
(PID.TID 0000.0001) //                bi = 000002, bj = 000016
(PID.TID 0000.0001) // Tile number: 000227 (process no. = 000000)
(PID.TID 0000.0001) //        WEST: Tile = 000226, Process = 000000, Comm = put
(PID.TID 0000.0001) //                bi = 000002, bj = 000015
(PID.TID 0000.0001) //        EAST: Tile = 000228, Process = 000000, Comm = put
(PID.TID 0000.0001) //                bi = 000004, bj = 000015
(PID.TID 0000.0001) //       SOUTH: Tile = 000211, Process = 000000, Comm = put
(PID.TID 0000.0001) //                bi = 000003, bj = 000014
(PID.TID 0000.0001) //       NORTH: Tile = 000243, Process = 000000, Comm = put
(PID.TID 0000.0001) //                bi = 000003, bj = 000016
(PID.TID 0000.0001) // Tile number: 000228 (process no. = 000000)
(PID.TID 0000.0001) //        WEST: Tile = 000227, Process = 000000, Comm = put
(PID.TID 0000.0001) //                bi = 000003, bj = 000015
(PID.TID 0000.0001) //        EAST: Tile = 000229, Process = 000000, Comm = put
(PID.TID 0000.0001) //                bi = 000005, bj = 000015
(PID.TID 0000.0001) //       SOUTH: Tile = 000212, Process = 000000, Comm = put
(PID.TID 0000.0001) //                bi = 000004, bj = 000014
(PID.TID 0000.0001) //       NORTH: Tile = 000244, Process = 000000, Comm = put
(PID.TID 0000.0001) //                bi = 000004, bj = 000016
(PID.TID 0000.0001) // Tile number: 000229 (process no. = 000000)
(PID.TID 0000.0001) //        WEST: Tile = 000228, Process = 000000, Comm = put
(PID.TID 0000.0001) //                bi = 000004, bj = 000015
(PID.TID 0000.0001) //        EAST: Tile = 000230, Process = 000000, Comm = put
(PID.TID 0000.0001) //                bi = 000006, bj = 000015
(PID.TID 0000.0001) //       SOUTH: Tile = 000213, Process = 000000, Comm = put
(PID.TID 0000.0001) //                bi = 000005, bj = 000014
(PID.TID 0000.0001) //       NORTH: Tile = 000245, Process = 000000, Comm = put
(PID.TID 0000.0001) //                bi = 000005, bj = 000016
(PID.TID 0000.0001) // Tile number: 000230 (process no. = 000000)
(PID.TID 0000.0001) //        WEST: Tile = 000229, Process = 000000, Comm = put
(PID.TID 0000.0001) //                bi = 000005, bj = 000015
(PID.TID 0000.0001) //        EAST: Tile = 000231, Process = 000000, Comm = put
(PID.TID 0000.0001) //                bi = 000007, bj = 000015
(PID.TID 0000.0001) //       SOUTH: Tile = 000214, Process = 000000, Comm = put
(PID.TID 0000.0001) //                bi = 000006, bj = 000014
(PID.TID 0000.0001) //       NORTH: Tile = 000246, Process = 000000, Comm = put
(PID.TID 0000.0001) //                bi = 000006, bj = 000016
(PID.TID 0000.0001) // Tile number: 000231 (process no. = 000000)
(PID.TID 0000.0001) //        WEST: Tile = 000230, Process = 000000, Comm = put
(PID.TID 0000.0001) //                bi = 000006, bj = 000015
(PID.TID 0000.0001) //        EAST: Tile = 000232, Process = 000000, Comm = put
(PID.TID 0000.0001) //                bi = 000008, bj = 000015
(PID.TID 0000.0001) //       SOUTH: Tile = 000215, Process = 000000, Comm = put
(PID.TID 0000.0001) //                bi = 000007, bj = 000014
(PID.TID 0000.0001) //       NORTH: Tile = 000247, Process = 000000, Comm = put
(PID.TID 0000.0001) //                bi = 000007, bj = 000016
(PID.TID 0000.0001) // Tile number: 000232 (process no. = 000000)
(PID.TID 0000.0001) //        WEST: Tile = 000231, Process = 000000, Comm = put
(PID.TID 0000.0001) //                bi = 000007, bj = 000015
(PID.TID 0000.0001) //        EAST: Tile = 000233, Process = 000000, Comm = put
(PID.TID 0000.0001) //                bi = 000009, bj = 000015
(PID.TID 0000.0001) //       SOUTH: Tile = 000216, Process = 000000, Comm = put
(PID.TID 0000.0001) //                bi = 000008, bj = 000014
(PID.TID 0000.0001) //       NORTH: Tile = 000248, Process = 000000, Comm = put
(PID.TID 0000.0001) //                bi = 000008, bj = 000016
(PID.TID 0000.0001) // Tile number: 000233 (process no. = 000000)
(PID.TID 0000.0001) //        WEST: Tile = 000232, Process = 000000, Comm = put
(PID.TID 0000.0001) //                bi = 000008, bj = 000015
(PID.TID 0000.0001) //        EAST: Tile = 000234, Process = 000000, Comm = put
(PID.TID 0000.0001) //                bi = 000010, bj = 000015
(PID.TID 0000.0001) //       SOUTH: Tile = 000217, Process = 000000, Comm = put
(PID.TID 0000.0001) //                bi = 000009, bj = 000014
(PID.TID 0000.0001) //       NORTH: Tile = 000249, Process = 000000, Comm = put
(PID.TID 0000.0001) //                bi = 000009, bj = 000016
(PID.TID 0000.0001) // Tile number: 000234 (process no. = 000000)
(PID.TID 0000.0001) //        WEST: Tile = 000233, Process = 000000, Comm = put
(PID.TID 0000.0001) //                bi = 000009, bj = 000015
(PID.TID 0000.0001) //        EAST: Tile = 000235, Process = 000000, Comm = put
(PID.TID 0000.0001) //                bi = 000011, bj = 000015
(PID.TID 0000.0001) //       SOUTH: Tile = 000218, Process = 000000, Comm = put
(PID.TID 0000.0001) //                bi = 000010, bj = 000014
(PID.TID 0000.0001) //       NORTH: Tile = 000250, Process = 000000, Comm = put
(PID.TID 0000.0001) //                bi = 000010, bj = 000016
(PID.TID 0000.0001) // Tile number: 000235 (process no. = 000000)
(PID.TID 0000.0001) //        WEST: Tile = 000234, Process = 000000, Comm = put
(PID.TID 0000.0001) //                bi = 000010, bj = 000015
(PID.TID 0000.0001) //        EAST: Tile = 000236, Process = 000000, Comm = put
(PID.TID 0000.0001) //                bi = 000012, bj = 000015
(PID.TID 0000.0001) //       SOUTH: Tile = 000219, Process = 000000, Comm = put
(PID.TID 0000.0001) //                bi = 000011, bj = 000014
(PID.TID 0000.0001) //       NORTH: Tile = 000251, Process = 000000, Comm = put
(PID.TID 0000.0001) //                bi = 000011, bj = 000016
(PID.TID 0000.0001) // Tile number: 000236 (process no. = 000000)
(PID.TID 0000.0001) //        WEST: Tile = 000235, Process = 000000, Comm = put
(PID.TID 0000.0001) //                bi = 000011, bj = 000015
(PID.TID 0000.0001) //        EAST: Tile = 000237, Process = 000000, Comm = put
(PID.TID 0000.0001) //                bi = 000013, bj = 000015
(PID.TID 0000.0001) //       SOUTH: Tile = 000220, Process = 000000, Comm = put
(PID.TID 0000.0001) //                bi = 000012, bj = 000014
(PID.TID 0000.0001) //       NORTH: Tile = 000252, Process = 000000, Comm = put
(PID.TID 0000.0001) //                bi = 000012, bj = 000016
(PID.TID 0000.0001) // Tile number: 000237 (process no. = 000000)
(PID.TID 0000.0001) //        WEST: Tile = 000236, Process = 000000, Comm = put
(PID.TID 0000.0001) //                bi = 000012, bj = 000015
(PID.TID 0000.0001) //        EAST: Tile = 000238, Process = 000000, Comm = put
(PID.TID 0000.0001) //                bi = 000014, bj = 000015
(PID.TID 0000.0001) //       SOUTH: Tile = 000221, Process = 000000, Comm = put
(PID.TID 0000.0001) //                bi = 000013, bj = 000014
(PID.TID 0000.0001) //       NORTH: Tile = 000253, Process = 000000, Comm = put
(PID.TID 0000.0001) //                bi = 000013, bj = 000016
(PID.TID 0000.0001) // Tile number: 000238 (process no. = 000000)
(PID.TID 0000.0001) //        WEST: Tile = 000237, Process = 000000, Comm = put
(PID.TID 0000.0001) //                bi = 000013, bj = 000015
(PID.TID 0000.0001) //        EAST: Tile = 000239, Process = 000000, Comm = put
(PID.TID 0000.0001) //                bi = 000015, bj = 000015
(PID.TID 0000.0001) //       SOUTH: Tile = 000222, Process = 000000, Comm = put
(PID.TID 0000.0001) //                bi = 000014, bj = 000014
(PID.TID 0000.0001) //       NORTH: Tile = 000254, Process = 000000, Comm = put
(PID.TID 0000.0001) //                bi = 000014, bj = 000016
(PID.TID 0000.0001) // Tile number: 000239 (process no. = 000000)
(PID.TID 0000.0001) //        WEST: Tile = 000238, Process = 000000, Comm = put
(PID.TID 0000.0001) //                bi = 000014, bj = 000015
(PID.TID 0000.0001) //        EAST: Tile = 000240, Process = 000000, Comm = put
(PID.TID 0000.0001) //                bi = 000016, bj = 000015
(PID.TID 0000.0001) //       SOUTH: Tile = 000223, Process = 000000, Comm = put
(PID.TID 0000.0001) //                bi = 000015, bj = 000014
(PID.TID 0000.0001) //       NORTH: Tile = 000255, Process = 000000, Comm = put
(PID.TID 0000.0001) //                bi = 000015, bj = 000016
(PID.TID 0000.0001) // Tile number: 000240 (process no. = 000000)
(PID.TID 0000.0001) //        WEST: Tile = 000239, Process = 000000, Comm = put
(PID.TID 0000.0001) //                bi = 000015, bj = 000015
(PID.TID 0000.0001) //        EAST: Tile = 000225, Process = 000000, Comm = put
(PID.TID 0000.0001) //                bi = 000001, bj = 000015
(PID.TID 0000.0001) //       SOUTH: Tile = 000224, Process = 000000, Comm = put
(PID.TID 0000.0001) //                bi = 000016, bj = 000014
(PID.TID 0000.0001) //       NORTH: Tile = 000256, Process = 000000, Comm = put
(PID.TID 0000.0001) //                bi = 000016, bj = 000016
(PID.TID 0000.0001) // Tile number: 000241 (process no. = 000000)
(PID.TID 0000.0001) //        WEST: Tile = 000256, Process = 000000, Comm = put
(PID.TID 0000.0001) //                bi = 000016, bj = 000016
(PID.TID 0000.0001) //        EAST: Tile = 000242, Process = 000000, Comm = put
(PID.TID 0000.0001) //                bi = 000002, bj = 000016
(PID.TID 0000.0001) //       SOUTH: Tile = 000225, Process = 000000, Comm = put
(PID.TID 0000.0001) //                bi = 000001, bj = 000015
(PID.TID 0000.0001) //       NORTH: Tile = 000001, Process = 000000, Comm = put
(PID.TID 0000.0001) //                bi = 000001, bj = 000001
(PID.TID 0000.0001) // Tile number: 000242 (process no. = 000000)
(PID.TID 0000.0001) //        WEST: Tile = 000241, Process = 000000, Comm = put
(PID.TID 0000.0001) //                bi = 000001, bj = 000016
(PID.TID 0000.0001) //        EAST: Tile = 000243, Process = 000000, Comm = put
(PID.TID 0000.0001) //                bi = 000003, bj = 000016
(PID.TID 0000.0001) //       SOUTH: Tile = 000226, Process = 000000, Comm = put
(PID.TID 0000.0001) //                bi = 000002, bj = 000015
(PID.TID 0000.0001) //       NORTH: Tile = 000002, Process = 000000, Comm = put
(PID.TID 0000.0001) //                bi = 000002, bj = 000001
(PID.TID 0000.0001) // Tile number: 000243 (process no. = 000000)
(PID.TID 0000.0001) //        WEST: Tile = 000242, Process = 000000, Comm = put
(PID.TID 0000.0001) //                bi = 000002, bj = 000016
(PID.TID 0000.0001) //        EAST: Tile = 000244, Process = 000000, Comm = put
(PID.TID 0000.0001) //                bi = 000004, bj = 000016
(PID.TID 0000.0001) //       SOUTH: Tile = 000227, Process = 000000, Comm = put
(PID.TID 0000.0001) //                bi = 000003, bj = 000015
(PID.TID 0000.0001) //       NORTH: Tile = 000003, Process = 000000, Comm = put
(PID.TID 0000.0001) //                bi = 000003, bj = 000001
(PID.TID 0000.0001) // Tile number: 000244 (process no. = 000000)
(PID.TID 0000.0001) //        WEST: Tile = 000243, Process = 000000, Comm = put
(PID.TID 0000.0001) //                bi = 000003, bj = 000016
(PID.TID 0000.0001) //        EAST: Tile = 000245, Process = 000000, Comm = put
(PID.TID 0000.0001) //                bi = 000005, bj = 000016
(PID.TID 0000.0001) //       SOUTH: Tile = 000228, Process = 000000, Comm = put
(PID.TID 0000.0001) //                bi = 000004, bj = 000015
(PID.TID 0000.0001) //       NORTH: Tile = 000004, Process = 000000, Comm = put
(PID.TID 0000.0001) //                bi = 000004, bj = 000001
(PID.TID 0000.0001) // Tile number: 000245 (process no. = 000000)
(PID.TID 0000.0001) //        WEST: Tile = 000244, Process = 000000, Comm = put
(PID.TID 0000.0001) //                bi = 000004, bj = 000016
(PID.TID 0000.0001) //        EAST: Tile = 000246, Process = 000000, Comm = put
(PID.TID 0000.0001) //                bi = 000006, bj = 000016
(PID.TID 0000.0001) //       SOUTH: Tile = 000229, Process = 000000, Comm = put
(PID.TID 0000.0001) //                bi = 000005, bj = 000015
(PID.TID 0000.0001) //       NORTH: Tile = 000005, Process = 000000, Comm = put
(PID.TID 0000.0001) //                bi = 000005, bj = 000001
(PID.TID 0000.0001) // Tile number: 000246 (process no. = 000000)
(PID.TID 0000.0001) //        WEST: Tile = 000245, Process = 000000, Comm = put
(PID.TID 0000.0001) //                bi = 000005, bj = 000016
(PID.TID 0000.0001) //        EAST: Tile = 000247, Process = 000000, Comm = put
(PID.TID 0000.0001) //                bi = 000007, bj = 000016
(PID.TID 0000.0001) //       SOUTH: Tile = 000230, Process = 000000, Comm = put
(PID.TID 0000.0001) //                bi = 000006, bj = 000015
(PID.TID 0000.0001) //       NORTH: Tile = 000006, Process = 000000, Comm = put
(PID.TID 0000.0001) //                bi = 000006, bj = 000001
(PID.TID 0000.0001) // Tile number: 000247 (process no. = 000000)
(PID.TID 0000.0001) //        WEST: Tile = 000246, Process = 000000, Comm = put
(PID.TID 0000.0001) //                bi = 000006, bj = 000016
(PID.TID 0000.0001) //        EAST: Tile = 000248, Process = 000000, Comm = put
(PID.TID 0000.0001) //                bi = 000008, bj = 000016
(PID.TID 0000.0001) //       SOUTH: Tile = 000231, Process = 000000, Comm = put
(PID.TID 0000.0001) //                bi = 000007, bj = 000015
(PID.TID 0000.0001) //       NORTH: Tile = 000007, Process = 000000, Comm = put
(PID.TID 0000.0001) //                bi = 000007, bj = 000001
(PID.TID 0000.0001) // Tile number: 000248 (process no. = 000000)
(PID.TID 0000.0001) //        WEST: Tile = 000247, Process = 000000, Comm = put
(PID.TID 0000.0001) //                bi = 000007, bj = 000016
(PID.TID 0000.0001) //        EAST: Tile = 000249, Process = 000000, Comm = put
(PID.TID 0000.0001) //                bi = 000009, bj = 000016
(PID.TID 0000.0001) //       SOUTH: Tile = 000232, Process = 000000, Comm = put
(PID.TID 0000.0001) //                bi = 000008, bj = 000015
(PID.TID 0000.0001) //       NORTH: Tile = 000008, Process = 000000, Comm = put
(PID.TID 0000.0001) //                bi = 000008, bj = 000001
(PID.TID 0000.0001) // Tile number: 000249 (process no. = 000000)
(PID.TID 0000.0001) //        WEST: Tile = 000248, Process = 000000, Comm = put
(PID.TID 0000.0001) //                bi = 000008, bj = 000016
(PID.TID 0000.0001) //        EAST: Tile = 000250, Process = 000000, Comm = put
(PID.TID 0000.0001) //                bi = 000010, bj = 000016
(PID.TID 0000.0001) //       SOUTH: Tile = 000233, Process = 000000, Comm = put
(PID.TID 0000.0001) //                bi = 000009, bj = 000015
(PID.TID 0000.0001) //       NORTH: Tile = 000009, Process = 000000, Comm = put
(PID.TID 0000.0001) //                bi = 000009, bj = 000001
(PID.TID 0000.0001) // Tile number: 000250 (process no. = 000000)
(PID.TID 0000.0001) //        WEST: Tile = 000249, Process = 000000, Comm = put
(PID.TID 0000.0001) //                bi = 000009, bj = 000016
(PID.TID 0000.0001) //        EAST: Tile = 000251, Process = 000000, Comm = put
(PID.TID 0000.0001) //                bi = 000011, bj = 000016
(PID.TID 0000.0001) //       SOUTH: Tile = 000234, Process = 000000, Comm = put
(PID.TID 0000.0001) //                bi = 000010, bj = 000015
(PID.TID 0000.0001) //       NORTH: Tile = 000010, Process = 000000, Comm = put
(PID.TID 0000.0001) //                bi = 000010, bj = 000001
(PID.TID 0000.0001) // Tile number: 000251 (process no. = 000000)
(PID.TID 0000.0001) //        WEST: Tile = 000250, Process = 000000, Comm = put
(PID.TID 0000.0001) //                bi = 000010, bj = 000016
(PID.TID 0000.0001) //        EAST: Tile = 000252, Process = 000000, Comm = put
(PID.TID 0000.0001) //                bi = 000012, bj = 000016
(PID.TID 0000.0001) //       SOUTH: Tile = 000235, Process = 000000, Comm = put
(PID.TID 0000.0001) //                bi = 000011, bj = 000015
(PID.TID 0000.0001) //       NORTH: Tile = 000011, Process = 000000, Comm = put
(PID.TID 0000.0001) //                bi = 000011, bj = 000001
(PID.TID 0000.0001) // Tile number: 000252 (process no. = 000000)
(PID.TID 0000.0001) //        WEST: Tile = 000251, Process = 000000, Comm = put
(PID.TID 0000.0001) //                bi = 000011, bj = 000016
(PID.TID 0000.0001) //        EAST: Tile = 000253, Process = 000000, Comm = put
(PID.TID 0000.0001) //                bi = 000013, bj = 000016
(PID.TID 0000.0001) //       SOUTH: Tile = 000236, Process = 000000, Comm = put
(PID.TID 0000.0001) //                bi = 000012, bj = 000015
(PID.TID 0000.0001) //       NORTH: Tile = 000012, Process = 000000, Comm = put
(PID.TID 0000.0001) //                bi = 000012, bj = 000001
(PID.TID 0000.0001) // Tile number: 000253 (process no. = 000000)
(PID.TID 0000.0001) //        WEST: Tile = 000252, Process = 000000, Comm = put
(PID.TID 0000.0001) //                bi = 000012, bj = 000016
(PID.TID 0000.0001) //        EAST: Tile = 000254, Process = 000000, Comm = put
(PID.TID 0000.0001) //                bi = 000014, bj = 000016
(PID.TID 0000.0001) //       SOUTH: Tile = 000237, Process = 000000, Comm = put
(PID.TID 0000.0001) //                bi = 000013, bj = 000015
(PID.TID 0000.0001) //       NORTH: Tile = 000013, Process = 000000, Comm = put
(PID.TID 0000.0001) //                bi = 000013, bj = 000001
(PID.TID 0000.0001) // Tile number: 000254 (process no. = 000000)
(PID.TID 0000.0001) //        WEST: Tile = 000253, Process = 000000, Comm = put
(PID.TID 0000.0001) //                bi = 000013, bj = 000016
(PID.TID 0000.0001) //        EAST: Tile = 000255, Process = 000000, Comm = put
(PID.TID 0000.0001) //                bi = 000015, bj = 000016
(PID.TID 0000.0001) //       SOUTH: Tile = 000238, Process = 000000, Comm = put
(PID.TID 0000.0001) //                bi = 000014, bj = 000015
(PID.TID 0000.0001) //       NORTH: Tile = 000014, Process = 000000, Comm = put
(PID.TID 0000.0001) //                bi = 000014, bj = 000001
(PID.TID 0000.0001) // Tile number: 000255 (process no. = 000000)
(PID.TID 0000.0001) //        WEST: Tile = 000254, Process = 000000, Comm = put
(PID.TID 0000.0001) //                bi = 000014, bj = 000016
(PID.TID 0000.0001) //        EAST: Tile = 000256, Process = 000000, Comm = put
(PID.TID 0000.0001) //                bi = 000016, bj = 000016
(PID.TID 0000.0001) //       SOUTH: Tile = 000239, Process = 000000, Comm = put
(PID.TID 0000.0001) //                bi = 000015, bj = 000015
(PID.TID 0000.0001) //       NORTH: Tile = 000015, Process = 000000, Comm = put
(PID.TID 0000.0001) //                bi = 000015, bj = 000001
(PID.TID 0000.0001) // Tile number: 000256 (process no. = 000000)
(PID.TID 0000.0001) //        WEST: Tile = 000255, Process = 000000, Comm = put
(PID.TID 0000.0001) //                bi = 000015, bj = 000016
(PID.TID 0000.0001) //        EAST: Tile = 000241, Process = 000000, Comm = put
(PID.TID 0000.0001) //                bi = 000001, bj = 000016
(PID.TID 0000.0001) //       SOUTH: Tile = 000240, Process = 000000, Comm = put
(PID.TID 0000.0001) //                bi = 000016, bj = 000015
(PID.TID 0000.0001) //       NORTH: Tile = 000016, Process = 000000, Comm = put
(PID.TID 0000.0001) //                bi = 000016, bj = 000001
(PID.TID 0000.0001) 
(PID.TID 0000.0001)  INI_PARMS: opening model parameter file "data"
(PID.TID 0000.0001)  OPEN_COPY_DATA_FILE: opening file data
(PID.TID 0000.0001) // =======================================================
(PID.TID 0000.0001) // Parameter file "data"
(PID.TID 0000.0001) // =======================================================
(PID.TID 0000.0001) ># Model parameters
(PID.TID 0000.0001) ># Continuous equation parameters
(PID.TID 0000.0001) > &PARM01
(PID.TID 0000.0001) > viscAh=100.,
(PID.TID 0000.0001) > viscAr=1.E-5,
(PID.TID 0000.0001) > no_slip_sides=.FALSE.,
(PID.TID 0000.0001) > no_slip_bottom=.FALSE.,
(PID.TID 0000.0001) > diffKhT=100.,
(PID.TID 0000.0001) > diffKrT=1.E-5,
(PID.TID 0000.0001) > diffKhS=100.,
(PID.TID 0000.0001) > diffKrS=1.E-5,
(PID.TID 0000.0001) > ivdc_kappa=1.,
(PID.TID 0000.0001) > implicitDiffusion=.TRUE.,
(PID.TID 0000.0001) > eosType='LINEAR',
(PID.TID 0000.0001) > tAlpha=2.E-4,
(PID.TID 0000.0001) > sBeta=7.4E-4,
(PID.TID 0000.0001) > rhoNil=999.8,
(PID.TID 0000.0001) > gravity=9.81,
(PID.TID 0000.0001) > rigidLid=.FALSE.,
(PID.TID 0000.0001) > implicitFreeSurface=.TRUE.,
(PID.TID 0000.0001) > exactConserv=.TRUE.,
(PID.TID 0000.0001) > saltStepping=.TRUE.,
(PID.TID 0000.0001) > readBinaryPrec = 64,
(PID.TID 0000.0001) > writeBinaryPrec = 64,
(PID.TID 0000.0001) > tRef=16.6, 16.6, 16.59, 16.5, 16.5, 16.5, 16.5, 16.5, 16.47, 16.4,
(PID.TID 0000.0001) >	16.31, 16.06, 15.79, 15.34, 14.63, 13.73, 12.54, 11.37, 10.46, 9.54,
(PID.TID 0000.0001) >	8.9, 8.33, 7.69, 7.07, 6.55, 6.11, 5.68, 5.24, 4.71, 4.27,
(PID.TID 0000.0001) >
(PID.TID 0000.0001) > sRef= 33.6, 33.6, 33.6, 33.6, 33.6, 33.6, 33.6, 33.6, 33.6, 33.6,
(PID.TID 0000.0001) >	33.6, 33.6, 33.6, 33.6, 33.7, 33.7, 33.8, 33.8, 33.89, 33.93,
(PID.TID 0000.0001) >	34.0, 34.12, 34.2, 34.2, 34.25, 34.3, 34.34, 34.4, 34.4, 34.48,
(PID.TID 0000.0001) >
(PID.TID 0000.0001) > f0=6.94E-4,
(PID.TID 0000.0001) ># globalFiles=.TRUE.,
(PID.TID 0000.0001) > useSingleCpuIO=.TRUE.,
(PID.TID 0000.0001) > /
(PID.TID 0000.0001) >
(PID.TID 0000.0001) ># Elliptic solver parameters
(PID.TID 0000.0001) > &PARM02
(PID.TID 0000.0001) > cg2dTargetResidual=1.E-7,
(PID.TID 0000.0001) > cg2dMaxIters=1000,
(PID.TID 0000.0001) > /
(PID.TID 0000.0001) >
(PID.TID 0000.0001) ># Time stepping parameters
(PID.TID 0000.0001) > &PARM03
(PID.TID 0000.0001) > startTime=0.,
(PID.TID 0000.0001) > endTime=72000.,,
(PID.TID 0000.0001) ># pickupSuff='ckptA',
(PID.TID 0000.0001) > nIter0=0,
(PID.TID 0000.0001) > deltaT=60.,
(PID.TID 0000.0001) > chkptFreq=43200.,
(PID.TID 0000.0001) > dumpFreq=1200.,
(PID.TID 0000.0001) > monitorFreq=1200.,
(PID.TID 0000.0001) > monitorSelect=2,
(PID.TID 0000.0001) > periodicExternalForcing=.TRUE.,
(PID.TID 0000.0001) > externForcingPeriod=1200.,
(PID.TID 0000.0001) > externForcingCycle=72000,
(PID.TID 0000.0001) > /
(PID.TID 0000.0001) >
(PID.TID 0000.0001) ># Gridding parameters
(PID.TID 0000.0001) > &PARM04
(PID.TID 0000.0001) ># usingSphericalPolarGrid=.TRUE.,
(PID.TID 0000.0001) > usingCartesianGrid=.TRUE.,
(PID.TID 0000.0001) > xgOrigin=-843E3,
(PID.TID 0000.0001) > ygOrigin=-62E3,
(PID.TID 0000.0001) > delR=2.0, 2.3, 2.7, 3.1, 3.6, 4.1, 4.8, 5.6, 6.4,
(PID.TID 0000.0001) >	7.4, 8.6, 10.0, 11.5, 13.3, 15.4, 17.8, 20.6,
(PID.TID 0000.0001) >	23.9, 27.6, 32.0, 37.0, 42.8, 49.5, 57.3, 66.3,
(PID.TID 0000.0001) >	76.7, 88.8, 102.7, 118.8, 137.4,
(PID.TID 0000.0001) > delYFile = '../input/bahia_01_expand_dy.bin',
(PID.TID 0000.0001) > delXFile = '../input/bahia_01_expand_dx.bin',
(PID.TID 0000.0001) > /
(PID.TID 0000.0001) >
(PID.TID 0000.0001) > &PARM05
(PID.TID 0000.0001) > bathyFile='../input/bahia_01_expand_bat.bin',
(PID.TID 0000.0001) > meridWindFile='../input/merid_halfgauss2p5hr_272x320.bin',
(PID.TID 0000.0001) > hydrogThetaFile='../input/feb_temp_30zlev_272x320.bin',
(PID.TID 0000.0001) > hydrogSaltFile='../input/feb_salt_30zlev_272x320.bin',
(PID.TID 0000.0001) > /
(PID.TID 0000.0001) >
(PID.TID 0000.0001) 
(PID.TID 0000.0001)  INI_PARMS ; starts to read PARM01
(PID.TID 0000.0001)  INI_PARMS ; read PARM01 : OK
(PID.TID 0000.0001)  INI_PARMS ; starts to read PARM02
(PID.TID 0000.0001)  INI_PARMS ; read PARM02 : OK
(PID.TID 0000.0001)  INI_PARMS ; starts to read PARM03
(PID.TID 0000.0001)  INI_PARMS ; read PARM03 : OK
(PID.TID 0000.0001)  INI_PARMS ; starts to read PARM04
(PID.TID 0000.0001)  INI_PARMS ; read PARM04 : OK
(PID.TID 0000.0001)  INI_PARMS ; starts to read PARM05
(PID.TID 0000.0001)  INI_PARMS ; read PARM05 : OK
(PID.TID 0000.0001)  INI_PARMS: finished reading file "data"
(PID.TID 0000.0001)  PACKAGES_BOOT: opening data.pkg
(PID.TID 0000.0001)  OPEN_COPY_DATA_FILE: opening file data.pkg
(PID.TID 0000.0001) // =======================================================
(PID.TID 0000.0001) // Parameter file "data.pkg"
(PID.TID 0000.0001) // =======================================================
(PID.TID 0000.0001) ># Packages (lines beginning "#" are comments)
(PID.TID 0000.0001) > &PACKAGES
(PID.TID 0000.0001) > useMNC=.TRUE.,
(PID.TID 0000.0001) > useDiagnostics=.FALSE.,
(PID.TID 0000.0001) > useOBCS=.TRUE.,
(PID.TID 0000.0001) > /
(PID.TID 0000.0001) 
(PID.TID 0000.0001)  PACKAGES_BOOT: finished reading data.pkg
(PID.TID 0000.0001)  PACKAGES_BOOT: On/Off package Summary
 --------  pkgs with a standard "usePKG" On/Off switch in "data.pkg":  --------
 pkg/obcs                 compiled   and   used ( useOBCS                  = T )
 pkg/mnc                  compiled   and   used ( useMNC                   = T )
 -------- pkgs without standard "usePKG" On/Off switch in "data.pkg":  --------
 pkg/generic_advdiff      compiled   and   used ( useGAD                   = T )
 pkg/mom_common           compiled   and   used ( momStepping              = T )
 pkg/mom_vecinv           compiled but not used ( +vectorInvariantMomentum = F )
 pkg/mom_fluxform         compiled   and   used ( & not vectorInvariantMom = T )
 pkg/monitor              compiled   and   used ( monitorFreq > 0.         = T )
 pkg/debug                compiled but not used ( debugMode                = F )
 pkg/rw                   compiled   and   used
 pkg/mdsio                compiled   and   used
(PID.TID 0000.0001)  PACKAGES_BOOT: End of package Summary
(PID.TID 0000.0001) 
(PID.TID 0000.0001)  MNC_READPARMS: opening file 'data.mnc'
(PID.TID 0000.0001)  OPEN_COPY_DATA_FILE: opening file data.mnc
(PID.TID 0000.0001) // =======================================================
(PID.TID 0000.0001) // Parameter file "data.mnc"
(PID.TID 0000.0001) // =======================================================
(PID.TID 0000.0001) ># Example "data.mnc" file
(PID.TID 0000.0001) ># Lines beginning "#" are comments
(PID.TID 0000.0001) > &MNC_01
(PID.TID 0000.0001) ># mnc_echo_gvtypes=.FALSE.,
(PID.TID 0000.0001) ># mnc_use_indir=.FALSE.,
(PID.TID 0000.0001) > mnc_use_outdir=.TRUE.,
(PID.TID 0000.0001) >
(PID.TID 0000.0001) >mnc_outdir_str='mnc_',
(PID.TID 0000.0001) >#mnc_outdir_date=.TRUE.,
(PID.TID 0000.0001) > monitor_mnc=.FALSE.,
(PID.TID 0000.0001) >#snapshot_mnc=.FALSE.,
(PID.TID 0000.0001) >#timeave_mnc=.FALSE.,
(PID.TID 0000.0001) > pickup_read_mnc=.FALSE.,
(PID.TID 0000.0001) > pickup_write_mnc=.FALSE.,
(PID.TID 0000.0001) > /
(PID.TID 0000.0001) ># Note: Some systems use / as the
(PID.TID 0000.0001) ># namelist terminator. Other systems
(PID.TID 0000.0001) ># use a & character (as shown here).
(PID.TID 0000.0001) 
(PID.TID 0000.0001)  MNC_READPARMS: finished reading data.mnc
(PID.TID 0000.0001)  OBCS_READPARMS: opening data.obcs
(PID.TID 0000.0001)  OPEN_COPY_DATA_FILE: opening file data.obcs
(PID.TID 0000.0001) // =======================================================
(PID.TID 0000.0001) // Parameter file "data.obcs"
(PID.TID 0000.0001) // =======================================================
(PID.TID 0000.0001) ># Open-boundaries
(PID.TID 0000.0001) > &OBCS_PARM01
(PID.TID 0000.0001) > OB_Jsouth = 272*1,
(PID.TID 0000.0001) > OB_Jnorth = 272*0,
(PID.TID 0000.0001) > useOrlanskiSouth=.TRUE.,
(PID.TID 0000.0001) > useOBCSsponge=.FALSE.,
(PID.TID 0000.0001) > useLinearSponge=.FALSE.,
(PID.TID 0000.0001) > OBCSsponge_Salt=.FALSE.,
(PID.TID 0000.0001) > OBCSsponge_Theta=.FALSE.,
(PID.TID 0000.0001) > useOBCSbalance=.TRUE.,
(PID.TID 0000.0001) > useOBCSprescribe=.FALSE.,
(PID.TID 0000.0001) > OBCS_balanceFacS=1.,
(PID.TID 0000.0001) > OBCS_monitorFreq=1200.,
(PID.TID 0000.0001) > /
(PID.TID 0000.0001) >
(PID.TID 0000.0001) > &OBCS_PARM02
(PID.TID 0000.0001) > cvelTimeScale=2000.0,
(PID.TID 0000.0001) > CMAX=1.0,
(PID.TID 0000.0001) > /
(PID.TID 0000.0001) >
(PID.TID 0000.0001) > &OBCS_PARM03
(PID.TID 0000.0001) > spongeThickness=12,
(PID.TID 0000.0001) > Urelaxobcsinner=600.E0,
(PID.TID 0000.0001) > Vrelaxobcsinner=600.E0,
(PID.TID 0000.0001) > Urelaxobcsbound=90.E0,
(PID.TID 0000.0001) > Vrelaxobcsbound=90.E0,
(PID.TID 0000.0001) > /
(PID.TID 0000.0001) 
(PID.TID 0000.0001)  OBCS_READPARMS: finished reading data.obcs
(PID.TID 0000.0001)  OB_indexUnset = /* unset OB index value (i.e. no OB) */
(PID.TID 0000.0001)                       0
(PID.TID 0000.0001)     ;
(PID.TID 0000.0001)  Northern OB global indices : OB_Jnorth =
(PID.TID 0000.0001)   272 @        0                            /* I =  1:272 */
(PID.TID 0000.0001)  Southern OB global indices : OB_Jsouth =
(PID.TID 0000.0001)   272 @        1                            /* I =  1:272 */
(PID.TID 0000.0001)  Eastern  OB global indices : OB_Ieast =
(PID.TID 0000.0001)   320 @        0                            /* J =  1:320 */
(PID.TID 0000.0001)  Western  OB global indices : OB_Iwest =
(PID.TID 0000.0001)   320 @        0                            /* J =  1:320 */
(PID.TID 0000.0001) 
(PID.TID 0000.0001) SET_PARMS: done
(PID.TID 0000.0001)  MDS_READVEC_LOC: open file: ../input/bahia_01_expand_dx.bin
(PID.TID 0000.0001) S/R LOAD_GRID_SPACING: delX loaded from file: ../input/bahia_01_expand_dx.bin
(PID.TID 0000.0001)  MDS_READVEC_LOC: open file: ../input/bahia_01_expand_dy.bin
(PID.TID 0000.0001) S/R LOAD_GRID_SPACING: delY loaded from file: ../input/bahia_01_expand_dy.bin
(PID.TID 0000.0001) Enter INI_VERTICAL_GRID: setInterFDr=    T ; setCenterDr=    F
(PID.TID 0000.0001) %MON XC_max                       =   8.2200000000000E+05
(PID.TID 0000.0001) %MON XC_min                       =  -8.1000000000000E+05
(PID.TID 0000.0001) %MON XC_mean                      =  -2.3878676470588E+04
(PID.TID 0000.0001) %MON XC_sd                        =   2.1449438974776E+05
(PID.TID 0000.0001) %MON XG_max                       =   7.8900000000000E+05
(PID.TID 0000.0001) %MON XG_min                       =  -8.4300000000000E+05
(PID.TID 0000.0001) %MON XG_mean                      =  -2.7000000000000E+04
(PID.TID 0000.0001) %MON XG_sd                        =   2.1416018749841E+05
(PID.TID 0000.0001) %MON DXC_max                      =   6.6000000000000E+04
(PID.TID 0000.0001) %MON DXC_min                      =   2.0042000000000E+03
(PID.TID 0000.0001) %MON DXC_mean                     =   6.2426470588235E+03
(PID.TID 0000.0001) %MON DXC_sd                       =   1.3137284466326E+04
(PID.TID 0000.0001) %MON DXF_max                      =   6.6000000000000E+04
(PID.TID 0000.0001) %MON DXF_min                      =   2.0000000000000E+03
(PID.TID 0000.0001) %MON DXF_mean                     =   6.2426470588235E+03
(PID.TID 0000.0001) %MON DXF_sd                       =   1.3155182686526E+04
(PID.TID 0000.0001) %MON DXG_max                      =   6.6000000000000E+04
(PID.TID 0000.0001) %MON DXG_min                      =   2.0000000000000E+03
(PID.TID 0000.0001) %MON DXG_mean                     =   6.2426470588235E+03
(PID.TID 0000.0001) %MON DXG_sd                       =   1.3155182686526E+04
(PID.TID 0000.0001) %MON DXV_max                      =   6.6000000000000E+04
(PID.TID 0000.0001) %MON DXV_min                      =   2.0042000000000E+03
(PID.TID 0000.0001) %MON DXV_mean                     =   6.2426470588235E+03
(PID.TID 0000.0001) %MON DXV_sd                       =   1.3137284466326E+04
(PID.TID 0000.0001) %MON YC_max                       =   5.8000470000000E+05
(PID.TID 0000.0001) %MON YC_min                       =  -6.0995300000000E+04
(PID.TID 0000.0001) %MON YC_mean                      =   2.5950470218750E+05
(PID.TID 0000.0001) %MON YC_sd                        =   1.8561992099325E+05
(PID.TID 0000.0001) %MON YG_max                       =   5.7900000000000E+05
(PID.TID 0000.0001) %MON YG_min                       =  -6.2000000000000E+04
(PID.TID 0000.0001) %MON YG_mean                      =   2.5850000000000E+05
(PID.TID 0000.0001) %MON YG_sd                        =   1.8561992100509E+05
(PID.TID 0000.0001) %MON DYC_max                      =   2.0094500000000E+03
(PID.TID 0000.0001) %MON DYC_min                      =   2.0094000000000E+03
(PID.TID 0000.0001) %MON DYC_mean                     =   2.0094043750000E+03
(PID.TID 0000.0001) %MON DYC_sd                       =   1.4128318194110E-02
(PID.TID 0000.0001) %MON DYF_max                      =   2.0095000000000E+03
(PID.TID 0000.0001) %MON DYF_min                      =   2.0094000000000E+03
(PID.TID 0000.0001) %MON DYF_mean                     =   2.0094043750000E+03
(PID.TID 0000.0001) %MON DYF_sd                       =   2.0453835214946E-02
(PID.TID 0000.0001) %MON DYG_max                      =   2.0095000000000E+03
(PID.TID 0000.0001) %MON DYG_min                      =   2.0094000000000E+03
(PID.TID 0000.0001) %MON DYG_mean                     =   2.0094043750000E+03
(PID.TID 0000.0001) %MON DYG_sd                       =   2.0453835214946E-02
(PID.TID 0000.0001) %MON DYU_max                      =   2.0094500000000E+03
(PID.TID 0000.0001) %MON DYU_min                      =   2.0094000000000E+03
(PID.TID 0000.0001) %MON DYU_mean                     =   2.0094043750000E+03
(PID.TID 0000.0001) %MON DYU_sd                       =   1.4128318194110E-02
(PID.TID 0000.0001) %MON RA_max                       =   1.3262700000000E+08
(PID.TID 0000.0001) %MON RA_min                       =   4.0187999999999E+06
(PID.TID 0000.0001) %MON RA_mean                      =   1.2544002311581E+07
(PID.TID 0000.0001) %MON RA_sd                        =   2.6434081645907E+07
(PID.TID 0000.0001) %MON RAW_max                      =   1.3262700000000E+08
(PID.TID 0000.0001) %MON RAW_min                      =   4.0272394799999E+06
(PID.TID 0000.0001) %MON RAW_mean                     =   1.2544002311581E+07
(PID.TID 0000.0001) %MON RAW_sd                       =   2.6398116883932E+07
(PID.TID 0000.0001) %MON RAS_max                      =   1.3262370000000E+08
(PID.TID 0000.0001) %MON RAS_min                      =   4.0188000000000E+06
(PID.TID 0000.0001) %MON RAS_mean                     =   1.2544002311581E+07
(PID.TID 0000.0001) %MON RAS_sd                       =   2.6434081645030E+07
(PID.TID 0000.0001) %MON RAZ_max                      =   1.3262370000000E+08
(PID.TID 0000.0001) %MON RAZ_min                      =   4.0272394800000E+06
(PID.TID 0000.0001) %MON RAZ_mean                     =   1.2544002311581E+07
(PID.TID 0000.0001) %MON RAZ_sd                       =   2.6398116883056E+07
(PID.TID 0000.0001) %MON AngleCS_max                  =   1.0000000000000E+00
(PID.TID 0000.0001) %MON AngleCS_min                  =   1.0000000000000E+00
(PID.TID 0000.0001) %MON AngleCS_mean                 =   1.0000000000000E+00
(PID.TID 0000.0001) %MON AngleCS_sd                   =   0.0000000000000E+00
(PID.TID 0000.0001) %MON AngleSN_max                  =   0.0000000000000E+00
(PID.TID 0000.0001) %MON AngleSN_min                  =   0.0000000000000E+00
(PID.TID 0000.0001) %MON AngleSN_mean                 =   0.0000000000000E+00
(PID.TID 0000.0001) %MON AngleSN_sd                   =   0.0000000000000E+00
(PID.TID 0000.0001)  MDS_READ_FIELD: opening global file: ../input/bahia_01_expand_bat.bin
(PID.TID 0000.0001) // =======================================================
(PID.TID 0000.0001) // Field Model R_low (ini_masks_etc)
(PID.TID 0000.0001) // CMIN =         -1.000000000000000E+03
(PID.TID 0000.0001) // CMAX =         -2.000000000000000E+00
(PID.TID 0000.0001) // CINT =          3.696296296296296E+01
(PID.TID 0000.0001) // SYMBOLS (CMIN->CMAX): -abcdefghijklmnopqrstuvwxyz+
(PID.TID 0000.0001) //                  0.0: .
(PID.TID 0000.0001) // RANGE I (Lo:Hi:Step):(    -2:   275:     1)
(PID.TID 0000.0001) // RANGE J (Lo:Hi:Step):(   323:    -2:    -1)
(PID.TID 0000.0001) // RANGE K (Lo:Hi:Step):(   1:   1:   1)
(PID.TID 0000.0001) // =======================================================
(PID.TID 0000.0001) K =   1
(PID.TID 0000.0001) //                I=7       I=17      I=21      I=31      I=35      I=45      I=49      I=59      I=69      I=73      I=83      I=87      I=97      I=101     I=111     I=121     I=125     I=135     I=139     I=149     I=153     I=163     I=173     I=177     I=187     I=191     I=201     I=205     I=215     I=219     I=229     I=239     I=243     I=253     I=257     I=267
(PID.TID 0000.0001) // |--J--|210123456|890123456|890567890|234567890|234567234|678901234|678901234|012345678|012345678|016789012|456789012|456783456|890123456|890123450|234567890|234567890|278901234|678901234|678945678|012345678|012345612|456789012|456789012|890123456|890123456|890567890|234567890|234567234|678901234|678901234|012345678|012345678|016789012|456789012|456783456|890123456|89012345
(PID.TID 0000.0001) //    323 --------------------------------------------------------------------------------------------------------------------------------------------------------------------------------------------------------------------------------------------------------------------------------------------------------------------------------------------------------------------------------
(PID.TID 0000.0001) //    322 --------------------------------------------------------------------------------------------------------------------------------------------------------------------------------------------------------------------------------------------------------------------------------------------------------------------------------------------------------------------------------
(PID.TID 0000.0001) //    321 --------------------------------------------------------------------------------------------------------------------------------------------------------------------------------------------------------------------------------------------------------------------------------------------------------------------------------------------------------------------------------
(PID.TID 0000.0001) //    320 ................................................................................................................................................................................................................................................................................................................................................................................
(PID.TID 0000.0001) //    319 ................................................................................................................................................................................................................................................................................................................................................................................
(PID.TID 0000.0001) //    318 ................................................................................................................................................................................................................................................................................................................................................................................
(PID.TID 0000.0001) //    317 ................................................................................................................................................................................................................................................................................................................................................................................
(PID.TID 0000.0001) //    316 ................................................................................................................................................................................................................................................................................................................................................................................
(PID.TID 0000.0001) //    315 ................................................................................................................................................................................................................................................................................................................................................................................
(PID.TID 0000.0001) //    314 ................................................................................................................................................................................................................................................................................................................................................................................
(PID.TID 0000.0001) //    313 ................................................................................................................................................................................................................................................................................................................................................................................
(PID.TID 0000.0001) //    312 ................................................................................................................................................................................................................................................................................................................................................................................
(PID.TID 0000.0001) //    311 .................................................................................................................................................................................++++++++++++++.................................................................................................................................................................................
(PID.TID 0000.0001) //    310 .........................................................................................................................................................................++++++++++++++++++++++++++++++.........................................................................................................................................................................
(PID.TID 0000.0001) //    309 ...............................................................................................................................................................++....++++++++++++++++++++++++++++++++++++++....++...............................................................................................................................................................
(PID.TID 0000.0001) //    308 ............................................................................................................................................................+++++.++++++++++++++++++++++++++++++++++++++++++++.+++++............................................................................................................................................................
(PID.TID 0000.0001) //    307 .........................................................................................................................................................++++++++++++++++++++++++++++++++++++++++++++++++++++++++++++++.........................................................................................................................................................
(PID.TID 0000.0001) //    306 .......................................................................................................................................................++++++++++++++++++++++++++zzzzzzzzzzzzzz++++++++++++++++++++++++++.......................................................................................................................................................
(PID.TID 0000.0001) //    305 .....................................................................................................................................................+++++++++++++++++++++zzzzzzzzzzzzzzzzzzzzzzzzzzzz+++++++++++++++++++++.....................................................................................................................................................
(PID.TID 0000.0001) //    304 ...................................................................................................................................................+++++++++++++z+++++zzzzzzzzzzzzzzzzzzzzzzzzzzzzzzzzzzzz+++++z+++++++++++++...................................................................................................................................................
(PID.TID 0000.0001) //    303 .................................................................................................................................................++++++++++++zzzz++zzzzzzzzzzzzzzzzzzzzzzzzzzzzzzzzzzzzzzzzzz++zzzz++++++++++++.................................................................................................................................................
(PID.TID 0000.0001) //    302 .........................................................................................................................................+.....+++++++++++zzzzzzzzzzzzzzzzzzzzzzzzzzzzzzzzzzzzzzzzzzzzzzzzzzzzzzzzzzzz+++++++++++.....+.........................................................................................................................................
(PID.TID 0000.0001) //    301 ........................................................................................................................................++....++++++++++zzzzzzzzzzzzzzzzzzzzzzzzzzzzzzzzzzzzzzzzzzzzzzzzzzzzzzzzzzzzzzzz++++++++++....++........................................................................................................................................
(PID.TID 0000.0001) //    300 ......................................................................................................................................++++..++++++++++zzzzzzzzzzzzzzzzzzzzzzzzzzzzzzzzzzzzzzzzzzzzzzzzzzzzzzzzzzzzzzzzzzzz++++++++++..++++......................................................................................................................................
(PID.TID 0000.0001) //    299 .....................................................................................................................................+++++.+++++++++zzzzzzzzzzzzzzzzzzzzzzzzzzzzzzzzzzzzzzzzzzzzzzzzzzzzzzzzzzzzzzzzzzzzzzzz+++++++++.+++++.....................................................................................................................................
(PID.TID 0000.0001) //    298 ...................................................................................................................................+++++++++++++++zzzzzzzzzzzzzzzzzzzzzzzzzzyyyyyyyyyyyyyyyyyyyyyyyyzzzzzzzzzzzzzzzzzzzzzzzzzz+++++++++++++++...................................................................................................................................
(PID.TID 0000.0001) //    303 .................................................................................................................................................++++++++++++zzzz++zzzzzzzzzzzzzzzzzzzzzzzzzzzzzzzzzzzzzzzzzz++zzzz++++++++++++.................................................................................................................................................
(PID.TID 0000.0001) //    302 .........................................................................................................................................+.....+++++++++++zzzzzzzzzzzzzzzzzzzzzzzzzzzzzzzzzzzzzzzzzzzzzzzzzzzzzzzzzzzz+++++++++++.....+.........................................................................................................................................
(PID.TID 0000.0001) //    301 ........................................................................................................................................++....++++++++++zzzzzzzzzzzzzzzzzzzzzzzzzzzzzzzzzzzzzzzzzzzzzzzzzzzzzzzzzzzzzzzz++++++++++....++........................................................................................................................................
(PID.TID 0000.0001) //    300 ......................................................................................................................................++++..++++++++++zzzzzzzzzzzzzzzzzzzzzzzzzzzzzzzzzzzzzzzzzzzzzzzzzzzzzzzzzzzzzzzzzzzz++++++++++..++++......................................................................................................................................
(PID.TID 0000.0001) //    299 .....................................................................................................................................+++++.+++++++++zzzzzzzzzzzzzzzzzzzzzzzzzzzzzzzzzzzzzzzzzzzzzzzzzzzzzzzzzzzzzzzzzzzzzzzz+++++++++.+++++.....................................................................................................................................
(PID.TID 0000.0001) //    298 ...................................................................................................................................+++++++++++++++zzzzzzzzzzzzzzzzzzzzzzzzzzyyyyyyyyyyyyyyyyyyyyyyyyzzzzzzzzzzzzzzzzzzzzzzzzzz+++++++++++++++...................................................................................................................................
(PID.TID 0000.0001) //    297 ..................................................................................................................................++++++++++++++zzzzzzzzzzzzzzzzzzzzzzzzyyyyyyyyyyyyyyyyyyyyyyyyyyyyyyyyzzzzzzzzzzzzzzzzzzzzzzzz++++++++++++++..................................................................................................................................
(PID.TID 0000.0001) //    296 .................................................................................................................................++++++++z+++++zzzzzzzzzzzzzzzzyyzzzzyyyyyyyyyyyyyyyyyyyyyyyyyyyyyyyyyyyyyyzzzzyyzzzzzzzzzzzzzzzz+++++z++++++++.................................................................................................................................
(PID.TID 0000.0001) //    295 ................................................................................................................................++++++++zz++++zzzzzzzzzzzzzzyyyyyzyyyyyyyyyyyyyyyyyyyyyyyyyyyyyyyyyyyyyyyyyyyyzyyyyyzzzzzzzzzzzzzz++++zz++++++++................................................................................................................................
(PID.TID 0000.0001) //    294 ...............................................................................................................................+++++++zzzz++zzzzzzzzzzzzzzyyyyyyyyyyyyyyyyyyyyyyyyyyyyyyyyyyyyyyyyyyyyyyyyyyyyyyyyyyyyzzzzzzzzzzzzzz++zzzz+++++++...............................................................................................................................
(PID.TID 0000.0001) //    293 ..............................................................................................................................+++++++zzzzz+zzzzzzzzzzzzzyyyyyyyyyyyyyyyyyyyyyyyyyyyyyyyyyyyyyyyyyyyyyyyyyyyyyyyyyyyyyyyyzzzzzzzzzzzzz+zzzzz+++++++..............................................................................................................................
(PID.TID 0000.0001) //    292 .............................................................................................................................+++++++zzzzzzzzzzzzzzzzzzyyyyyyyyyyyyyyyyyyyyyyyyyyyyyyyyyyyyyyyyyyyyyyyyyyyyyyyyyyyyyyyyyyyyzzzzzzzzzzzzzzzzzz+++++++.............................................................................................................................
(PID.TID 0000.0001) //    291 ............................................................................................................................+++++++zzzzzzzzzzzzzzzzzzyyyyyyyyyyyyyyyyyyyyyyyyyyyyyyyyyyyyyyyyyyyyyyyyyyyyyyyyyyyyyyyyyyyyyyzzzzzzzzzzzzzzzzzz+++++++............................................................................................................................
(PID.TID 0000.0001) //    290 ...........................................................................................................................+++++++zzzzzzzzzzzzzzzzzyyyyyyyyyyyyyyyyyyyyyyyyyyyyyyyyyyyyyyyyyyyyyyyyyyyyyyyyyyyyyyyyyyyyyyyyyyzzzzzzzzzzzzzzzzz+++++++...........................................................................................................................
(PID.TID 0000.0001) //    289 ..........................................................................................................................+++++++zzzzzzzzzzzzzzzzzyyyyyyyyyyyyyyyyyyyyyyyyyyyyxxxxxxxxxxxxxxxxxxxxyyyyyyyyyyyyyyyyyyyyyyyyyyyyzzzzzzzzzzzzzzzzz+++++++..........................................................................................................................
(PID.TID 0000.0001) //    288 .........................................................................................................................+++++++zzzzzzzzzzzzzzzzzyyyyyyyyyyyyyyyyyyyyyyyyyxxxxxxxxxxxxxxxxxxxxxxxxxxxxyyyyyyyyyyyyyyyyyyyyyyyyyzzzzzzzzzzzzzzzzz+++++++.........................................................................................................................
(PID.TID 0000.0001) //    287 .........................................................................................................................++++++zzzzzzzzzzyzzzzzyyyyyyyyyyyyyyyyyyyyyyyyxxxxxxxxxxxxxxxxxxxxxxxxxxxxxxxxxxyyyyyyyyyyyyyyyyyyyyyyyyzzzzzyzzzzzzzzzz++++++.........................................................................................................................
(PID.TID 0000.0001) //    286 ..................................................................................................................+.....++++++zzzzzzzzzzyyzzzzyyyyyyyyyyyyyyyyyxxyyyyxxxxxxxxxxxxxxxxxxxxxxxxxxxxxxxxxxxxxxyyyyxxyyyyyyyyyyyyyyyyyzzzzyyzzzzzzzzzz++++++.....+..................................................................................................................
(PID.TID 0000.0001) //    285 .................................................................................................................++....++++++zzzzzzzzzzyyyzzzyyyyyyyyyyyyyyyyxxxxyyxxxxxxxxxxxxxxxxxxxxxxxxxxxxxxxxxxxxxxxxxxyyxxxxyyyyyyyyyyyyyyyyzzzyyyzzzzzzzzzz++++++....++.................................................................................................................
(PID.TID 0000.0001) //    284 .................................................................................................................++....++++++zzzzzzzzzyyyyzzyyyyyyyyyyyyyyyxxxxxxxxxxxxxxxxxxxxxxxxxxxxxxxxxxxxxxxxxxxxxxxxxxxxxxxxxxyyyyyyyyyyyyyyyzzyyyyzzzzzzzzz++++++....++.................................................................................................................
(PID.TID 0000.0001) //    283 ................................................................................................................+++...++++++zzzzzzzzzyyyyyzyyyyyyyyyyyyyyxxxxxxxxxxxxxxxxxxxxxxxxxxxxxxxxxxxxxxxxxxxxxxxxxxxxxxxxxxxxxxyyyyyyyyyyyyyyzyyyyyzzzzzzzzz++++++...+++................................................................................................................
(PID.TID 0000.0001) //    282 ...............................................................................................................++++..++++++zzzzzzzzzyyyyyyyyyyyyyyyyyyyyxxxxxxxxxxxxxxxxxxxxxxxxxxxxxxxxxxxxxxxxxxxxxxxxxxxxxxxxxxxxxxxxyyyyyyyyyyyyyyyyyyyyzzzzzzzzz++++++..++++...............................................................................................................
(PID.TID 0000.0001) //    281 ...............................................................................................................++++..++++++zzzzzzzzzyyyyyyyyyyyyyyyyyyyxxxxxxxxxxxxxxxxxxxxxxxxxxxxxxxxxxxxxxxxxxxxxxxxxxxxxxxxxxxxxxxxxxyyyyyyyyyyyyyyyyyyyzzzzzzzzz++++++..++++...............................................................................................................
(PID.TID 0000.0001) //    280 ..............................................................................................................+++++.++++++zzzzzzzzzyyyyyyyyyyyyyyyyyyxxxxxxxxxxxxxxxxxxxxxxxxxxxxxxxxxxxxxxxxxxxxxxxxxxxxxxxxxxxxxxxxxxxxxxyyyyyyyyyyyyyyyyyyzzzzzzzzz++++++.+++++..............................................................................................................
(PID.TID 0000.0001) //    279 ..............................................................................................................+++++.+++++zzzzzzzzzyyyyyyyyyyyyyyyyyyxxxxxxxxxxxxxxxxxxxxxxxxxxxxxxxxxxxxxxxxxxxxxxxxxxxxxxxxxxxxxxxxxxxxxxxxyyyyyyyyyyyyyyyyyyzzzzzzzzz+++++.+++++..............................................................................................................
(PID.TID 0000.0001) //    278 .............................................................................................................++++++++++++zzzzzzzzyyyyyyyyyyyyyyyyyyxxxxxxxxxxxxxxxxxxxxxxxxxxxxxxxxwwwwxxwwwwxxxxxxxxxxxxxxxxxxxxxxxxxxxxxxxxyyyyyyyyyyyyyyyyyyzzzzzzzz++++++++++++.............................................................................................................
(PID.TID 0000.0001) //    283 ................................................................................................................+++...++++++zzzzzzzzzyyyyyzyyyyyyyyyyyyyyxxxxxxxxxxxxxxxxxxxxxxxxxxxxxxxxxxxxxxxxxxxxxxxxxxxxxxxxxxxxxxyyyyyyyyyyyyyyzyyyyyzzzzzzzzz++++++...+++................................................................................................................
(PID.TID 0000.0001) //    282 ...............................................................................................................++++..++++++zzzzzzzzzyyyyyyyyyyyyyyyyyyyyxxxxxxxxxxxxxxxxxxxxxxxxxxxxxxxxxxxxxxxxxxxxxxxxxxxxxxxxxxxxxxxxyyyyyyyyyyyyyyyyyyyyzzzzzzzzz++++++..++++...............................................................................................................
(PID.TID 0000.0001) //    281 ...............................................................................................................++++..++++++zzzzzzzzzyyyyyyyyyyyyyyyyyyyxxxxxxxxxxxxxxxxxxxxxxxxxxxxxxxxxxxxxxxxxxxxxxxxxxxxxxxxxxxxxxxxxxyyyyyyyyyyyyyyyyyyyzzzzzzzzz++++++..++++...............................................................................................................
(PID.TID 0000.0001) //    280 ..............................................................................................................+++++.++++++zzzzzzzzzyyyyyyyyyyyyyyyyyyxxxxxxxxxxxxxxxxxxxxxxxxxxxxxxxxxxxxxxxxxxxxxxxxxxxxxxxxxxxxxxxxxxxxxxyyyyyyyyyyyyyyyyyyzzzzzzzzz++++++.+++++..............................................................................................................
(PID.TID 0000.0001) //    279 ..............................................................................................................+++++.+++++zzzzzzzzzyyyyyyyyyyyyyyyyyyxxxxxxxxxxxxxxxxxxxxxxxxxxxxxxxxxxxxxxxxxxxxxxxxxxxxxxxxxxxxxxxxxxxxxxxxyyyyyyyyyyyyyyyyyyzzzzzzzzz+++++.+++++..............................................................................................................
(PID.TID 0000.0001) //    278 .............................................................................................................++++++++++++zzzzzzzzyyyyyyyyyyyyyyyyyyxxxxxxxxxxxxxxxxxxxxxxxxxxxxxxxxwwwwxxwwwwxxxxxxxxxxxxxxxxxxxxxxxxxxxxxxxxyyyyyyyyyyyyyyyyyyzzzzzzzz++++++++++++.............................................................................................................
(PID.TID 0000.0001) //    277 .............................................................................................................+++++z+++++zzzzzzzzzyyyyyyyyyyyyyyyyyxxxxxxxxxxxxxxxxxxxxxxxxxxxwwwwwwwwwwwwwwwwwwwwwwxxxxxxxxxxxxxxxxxxxxxxxxxxxyyyyyyyyyyyyyyyyyzzzzzzzzz+++++z+++++.............................................................................................................
(PID.TID 0000.0001) //    276 ............................................................................................................++++++z+++++zzzzzzzzyyyyyyyyyyyyyyyyyxxxxxxxxxxxxxxxxxxxxxxxxxxwwwwwwwwwwwwwwwwwwwwwwwwwwxxxxxxxxxxxxxxxxxxxxxxxxxxyyyyyyyyyyyyyyyyyzzzzzzzz+++++z++++++............................................................................................................
(PID.TID 0000.0001) //    275 ............................................................................................................+++++zz++++zzzzzzzzyyyyyyyyyyyyyyyyyyxxxxxxxxxxxxxxxxxxxxxxxwwwwwwwwwwwwwwwwwwwwwwwwwwwwwwwwxxxxxxxxxxxxxxxxxxxxxxxyyyyyyyyyyyyyyyyyyzzzzzzzz++++zz+++++............................................................................................................
(PID.TID 0000.0001) //    274 ...........................................................................................................++++++zz++++zzzzzzzzyyyyyyyyyyyyyyyyyxxxxxxxxxxxxxxxxxxxxxxxwwwwwwwwwwwwwwwwwwwwwwwwwwwwwwwwwwxxxxxxxxxxxxxxxxxxxxxxxyyyyyyyyyyyyyyyyyzzzzzzzz++++zz++++++...........................................................................................................
(PID.TID 0000.0001) //    273 ...........................................................................................................+++++zzz+++zzzzzzzzyyyyyyyyyyyxyyyyyxxxxxxxxxxxxxxxxwwxxxxwwwwwwwwwwwwwwwwwwwwwwwwwwwwwwwwwwwwwwxxxxwwxxxxxxxxxxxxxxxxyyyyyxyyyyyyyyyyyzzzzzzzz+++zzz+++++...........................................................................................................
(PID.TID 0000.0001) //    272 ..........................................................................................................++++++zzz+++zzzzzzzzyyyyyyyyyyxxyyyyxxxxxxxxxxxxxxxxwwwxxxwwwwwwwwwwwwwwwwwwwwwwwwwwwwwwwwwwwwwwwwxxxwwwxxxxxxxxxxxxxxxxyyyyxxyyyyyyyyyyzzzzzzzz+++zzz++++++..........................................................................................................
(PID.TID 0000.0001) //    271 ..........................................................................................................+++++zzzz++zzzzzzzzyyyyyyyyyyyxxyyyyxxxxxxxxxxxxxxxwwwwxxwwwwwwwwwwwwwwwwwwwwwwwwwwwwwwwwwwwwwwwwwwxxwwwwxxxxxxxxxxxxxxxyyyyxxyyyyyyyyyyyzzzzzzzz++zzzz+++++..........................................................................................................
(PID.TID 0000.0001) //    270 ..........................................................................................................+++++zzzz++zzzzzzzzyyyyyyyyyyxxxyyyxxxxxxxxxxxxxxxwwwwwxwwwwwwwwwwwwwwwwwwwwwwwwwwwwwwwwwwwwwwwwwwwwxwwwwwxxxxxxxxxxxxxxxyyyxxxyyyyyyyyyyzzzzzzzz++zzzz+++++..........................................................................................................
(PID.TID 0000.0001) //    269 .........................................................................................................++++++zzzz++zzzzzzzyyyyyyyyyyyxxxyyyxxxxxxxxxxxxxxwwwwwwwwwwwwwwwwwwwwwwwwwwwwwwwwwwwwwwwwwwwwwwwwwwwwwwwwwwxxxxxxxxxxxxxxyyyxxxyyyyyyyyyyyzzzzzzz++zzzz++++++.........................................................................................................
(PID.TID 0000.0001) //    268 .........................................................................................................+++++zzzzz+zzzzzzzzyyyyyyyyyyxxxxyyxxxxxxxxxxxxxxwwwwwwwwwwwwwwwwwwwwwwwwwwwwwwwwwwwwwwwwwwwwwwwwwwwwwwwwwwwwxxxxxxxxxxxxxxyyxxxxyyyyyyyyyyzzzzzzzz+zzzzz+++++.........................................................................................................
(PID.TID 0000.0001) //    267 .........................................................................................................+++++zzzzz+zzzzzzzzyyyyyyyyyyxxxxyyxxxxxxxxxxxxxwwwwwwwwwwwwwwwwwwwwwwwwwwwwwwwwwwwwwwwwwwwwwwwwwwwwwwwwwwwwwwxxxxxxxxxxxxxyyxxxxyyyyyyyyyyzzzzzzzz+zzzzz+++++.........................................................................................................
(PID.TID 0000.0001) //    266 .........................................................................................................+++++zzzzz+zzzzzzzyyyyyyyyyyxxxxxyxxxxxxxxxxxxxwwwwwwwwwwwwwwwwwwwwwwwwwwwwwwwwwwwwwwwwwwwwwwwwwwwwwwwwwwwwwwwwxxxxxxxxxxxxxyxxxxxyyyyyyyyyyzzzzzzz+zzzzz+++++.........................................................................................................
(PID.TID 0000.0001) //    265 ........................................................................................................+++++zzzzzzzzzzzzzzyyyyyyyyyyxxxxxyxxxxxxxxxxxxxwwwwwwwwwwwwwwwwwwwwwwwwwwwwwwwwwwwwwwwwwwwwwwwwwwwwwwwwwwwwwwwwxxxxxxxxxxxxxyxxxxxyyyyyyyyyyzzzzzzzzzzzzzz+++++........................................................................................................
(PID.TID 0000.0001) //    264 ........................................................................................................+++++zzzzzzzzzzzzzzyyyyyyyyyxxxxxxxxxxxxxxxxxxxwwwwwwwwwwwwwwwwwwwwwwwwwwwwwwwwwwwwwwwwwwwwwwwwwwwwwwwwwwwwwwwwwwxxxxxxxxxxxxxxxxxxxyyyyyyyyyzzzzzzzzzzzzzz+++++........................................................................................................
(PID.TID 0000.0001) //    263 ........................................................................................................+++++zzzzzzzzzzzzzyyyyyyyyyyxxxxxxxxxxxxxxxxxxxwwwwwwwwwwwwwwwwwwwwwwwwwwwwwwwwwwwwwwwwwwwwwwwwwwwwwwwwwwwwwwwwwwxxxxxxxxxxxxxxxxxxxyyyyyyyyyyzzzzzzzzzzzzz+++++........................................................................................................
(PID.TID 0000.0001) //    262 ........................................................................................................+++++zzzzzzzzzzzzzyyyyyyyyyyxxxxxxxxxxxxxxxxxxwwwwwwwwwwwwwwwwwwwwwwwwwwwwwwwwwwwwwwwwwwwwwwwwwwwwwwwwwwwwwwwwwwwwxxxxxxxxxxxxxxxxxxyyyyyyyyyyzzzzzzzzzzzzz+++++........................................................................................................
(PID.TID 0000.0001) //    261 .......................................................................................................++++++zzzzzzzzzzzzzyyyyyyyyyxxxxxxxxxxxxxxxxxxxwwwwwwwwwwwwwwwwwwwwwwwwwwwwwwwwwwwwwwwwwwwwwwwwwwwwwwwwwwwwwwwwwwwwxxxxxxxxxxxxxxxxxxxyyyyyyyyyzzzzzzzzzzzzz++++++.......................................................................................................
(PID.TID 0000.0001) //    260 .......................................................................................................+++++zzzzzzzzzzzzzzyyyyyyyyyxxxxxxxxxxxxxxxxxxwwwwwwwwwwwwwwwwwwwwwwwwwwwwwwwwwwwwwwwwwwwwwwwwwwwwwwwwwwwwwwwwwwwwwwxxxxxxxxxxxxxxxxxxyyyyyyyyyzzzzzzzzzzzzzz+++++.......................................................................................................
(PID.TID 0000.0001) //    259 .......................................................................................................+++++zzzzzzzzzzzzzzyyyyyyyyyxxxxxxxxxxxxxxxxxxwwwwwwwwwwwwwwwwwwwwwwwwwwwwwwwwwwwwwwwwwwwwwwwwwwwwwwwwwwwwwwwwwwwwwwxxxxxxxxxxxxxxxxxxyyyyyyyyyzzzzzzzzzzzzzz+++++.......................................................................................................
(PID.TID 0000.0001) //    258 .......................................................................................................+++++zzzzzzzzzzzzzyyyyyyyyyyxxxxxxxxxxxxxxxxxxwwwwwwwwwwwwwwwwwwwwwwwwwwwwwwwwwwwwwwwwwwwwwwwwwwwwwwwwwwwwwwwwwwwwwwxxxxxxxxxxxxxxxxxxyyyyyyyyyyzzzzzzzzzzzzz+++++.......................................................................................................
(PID.TID 0000.0001) //    263 ........................................................................................................+++++zzzzzzzzzzzzzyyyyyyyyyyxxxxxxxxxxxxxxxxxxxwwwwwwwwwwwwwwwwwwwwwwwwwwwwwwwwwwwwwwwwwwwwwwwwwwwwwwwwwwwwwwwwwwxxxxxxxxxxxxxxxxxxxyyyyyyyyyyzzzzzzzzzzzzz+++++........................................................................................................
(PID.TID 0000.0001) //    262 ........................................................................................................+++++zzzzzzzzzzzzzyyyyyyyyyyxxxxxxxxxxxxxxxxxxwwwwwwwwwwwwwwwwwwwwwwwwwwwwwwwwwwwwwwwwwwwwwwwwwwwwwwwwwwwwwwwwwwwwxxxxxxxxxxxxxxxxxxyyyyyyyyyyzzzzzzzzzzzzz+++++........................................................................................................
(PID.TID 0000.0001) //    261 .......................................................................................................++++++zzzzzzzzzzzzzyyyyyyyyyxxxxxxxxxxxxxxxxxxxwwwwwwwwwwwwwwwwwwwwwwwwwwwwwwwwwwwwwwwwwwwwwwwwwwwwwwwwwwwwwwwwwwwwxxxxxxxxxxxxxxxxxxxyyyyyyyyyzzzzzzzzzzzzz++++++.......................................................................................................
(PID.TID 0000.0001) //    260 .......................................................................................................+++++zzzzzzzzzzzzzzyyyyyyyyyxxxxxxxxxxxxxxxxxxwwwwwwwwwwwwwwwwwwwwwwwwwwwwwwwwwwwwwwwwwwwwwwwwwwwwwwwwwwwwwwwwwwwwwwxxxxxxxxxxxxxxxxxxyyyyyyyyyzzzzzzzzzzzzzz+++++.......................................................................................................
(PID.TID 0000.0001) //    259 .......................................................................................................+++++zzzzzzzzzzzzzzyyyyyyyyyxxxxxxxxxxxxxxxxxxwwwwwwwwwwwwwwwwwwwwwwwwwwwwwwwwwwwwwwwwwwwwwwwwwwwwwwwwwwwwwwwwwwwwwwxxxxxxxxxxxxxxxxxxyyyyyyyyyzzzzzzzzzzzzzz+++++.......................................................................................................
(PID.TID 0000.0001) //    258 .......................................................................................................+++++zzzzzzzzzzzzzyyyyyyyyyyxxxxxxxxxxxxxxxxxxwwwwwwwwwwwwwwwwwwwwwwwwwwwwwwwwwwwwwwwwwwwwwwwwwwwwwwwwwwwwwwwwwwwwwwxxxxxxxxxxxxxxxxxxyyyyyyyyyyzzzzzzzzzzzzz+++++.......................................................................................................
(PID.TID 0000.0001) //    257 .......................................................................................................+++++zzzzzzzzzzzzzyyyyyyyyyyxxxxxxxxxxxxxxxxxwwwwwwwwwwwwwwwwwwwwwwwwwwwwwwwwwwwwwwwwwwwwwwwwwwwwwwwwwwwwwwwwwwwwwwwwxxxxxxxxxxxxxxxxxyyyyyyyyyyzzzzzzzzzzzzz+++++.......................................................................................................
(PID.TID 0000.0001) //    256 .......................................................................................................+++++zzzzzzzzzzzzzyyyyyyyyyxxxxxxxxxxxxxxxxxxwwwwwwwwwwwwwwwwwwwwwwwwwwwwwwwwwwwwwwwwwwwwwwwwwwwwwwwwwwwwwwwwwwwwwwwwxxxxxxxxxxxxxxxxxxyyyyyyyyyzzzzzzzzzzzzz+++++.......................................................................................................
(PID.TID 0000.0001) //    255 ......................................................................................................++++++zzzzzzzzzzzzzyyyyyyyyyxxxxxxxxxxxxxxxxxxwwwwwwwwwwwwwwwwwwwwwwwwwwwwwwwwwwwwwwwwwwwwwwwwwwwwwwwwwwwwwwwwwwwwwwwwxxxxxxxxxxxxxxxxxxyyyyyyyyyzzzzzzzzzzzzz++++++......................................................................................................
(PID.TID 0000.0001) //    254 +++++++++++++++++++++++++++++++++++++++++++++++++++++++++++++++++++++++++++++++++++++++++++++++++++++++++++zzzzzzzyzzzzzyyyyyyyyyyxxxxxxxxxxxxxxxxxwwwwwwwwwwwwwwwwwwwwwwwwwwwwwwwwwwwwwwwwwwwwwwwwwwwwwwwwwwwwwwwwwwwwwwwwwwxxxxxxxxxxxxxxxxxyyyyyyyyyyzzzzzyzzzzzzz+++++++++++++++++++++++++++++++++++++++++++++++++++++++++++++++++++++++++++++++++++++++++++++++++++++++++++
(PID.TID 0000.0001) //    253 +++++++++++++++++++++++++++++++++++++++++++++++++++++++++++++++++++++++++++++++++++++++++++++++++++++++++zzzzzzzzyyzzzzyyyyyyyyyxxxxxxxxxxxxxxxxxxwwwwwwwwwwwwwwwwwwwwwwwwwwwwwwwwwwwwwwwwwwwwwwwwwwwwwwwwwwwwwwwwwwwwwwwwwwwwxxxxxxxxxxxxxxxxxxyyyyyyyyyzzzzyyzzzzzzzz+++++++++++++++++++++++++++++++++++++++++++++++++++++++++++++++++++++++++++++++++++++++++++++++++++++++++
(PID.TID 0000.0001) //    252 zzzzzzzzzzzzzzzzzzzzzzzzzzzzzzzzzzzzzzzzzzzzzzzzzzzzzzzzzzzzzzzzzzzzzzzzzzzzzzzzzzzzzzzzzzzzzzzzzzzzzzzzzzyyyyyyyyyyyyyyyyxxxxxxxxxxxxwwwwxxwwwwwwwwwwwwwwwwwwwwwwwwwwwwwwwwwwwwwwwwwwwwwwwwwwwwwwwwwwwwwwwwwwwwwwwwwwwwwwwwwwwwwwwwxxwwwwxxxxxxxxxxxxyyyyyyyyyyyyyyyyzzzzzzzzzzzzzzzzzzzzzzzzzzzzzzzzzzzzzzzzzzzzzzzzzzzzzzzzzzzzzzzzzzzzzzzzzzzzzzzzzzzzzzzzzzzzzzzzzzzzzzzzzz
(PID.TID 0000.0001) //    251 xxxxxxxxxxxxxxxxxxxxxxxxxxxxxxxxxxxxxxxxxxxxxxxxxxxxxxxxxxxxxxxxxxxxxxxxxxxxxxxxxxxxxxxxxxxxxxxxxxxxxxxxxxxxxxxxxxxxxxxxxwwwwwwwwwwwwwwwwwwwwwwwwwwwwwwwwwvvvvvvvvvvvvvvvvvvvvvvvvvvvvvvvvvvvvvvvvvvvvvvvvvvvvvvvvvvvvwwwwwwwwwwwwwwwwwwwwwwwwwwwwwwwwwxxxxxxxxxxxxxxxxxxxxxxxxxxxxxxxxxxxxxxxxxxxxxxxxxxxxxxxxxxxxxxxxxxxxxxxxxxxxxxxxxxxxxxxxxxxxxxxxxxxxxxxxxxxxxxxxxxxxxxxxx
(PID.TID 0000.0001) //    250 wwwwwwwwwwwwwwwwwwwwwwwwwwwwwwwwwwwwwwwwwwwwwwwwwwwwwwwwwwwwwwwwwwwwwwwwwwwwwwwwwwwwwwwwwwwwwwwwwwwwwwwwwwwwwvvvvvvvvvvvvvvvvvvvvvvvvvvvvvvvvvvvvvvvuuuuuuuuuuuuuuuuuuuuuuuuuuuuuuuuuuuuuuuuuuuuuuuuuuuuuuuuuuuuuuuuuuuuuuuuvvvvvvvvvvvvvvvvvvvvvvvvvvvvvvvvvvvvvvvwwwwwwwwwwwwwwwwwwwwwwwwwwwwwwwwwwwwwwwwwwwwwwwwwwwwwwwwwwwwwwwwwwwwwwwwwwwwwwwwwwwwwwwwwwwwwwwwwwwwwwwwwwwww
(PID.TID 0000.0001) //    249 uuuuuuuuuuuuuuuuuuuuuuuuuuuuuuuuuuuuuuuuuuuuuuuuuuuuuuuuuuuuuuuuuuuuuuuuuuuuuuuuuuuuuuuuuuuuuuuuuuuuuuuuuuuuuutttttuttttttttttttttttttttttttttttttttttttttttttttttttttttttttttttttttttttttttttttttttttttttttttttttttttttttttttttttttttttttttttttttttttttttttutttttuuuuuuuuuuuuuuuuuuuuuuuuuuuuuuuuuuuuuuuuuuuuuuuuuuuuuuuuuuuuuuuuuuuuuuuuuuuuuuuuuuuuuuuuuuuuuuuuuuuuuuuuuuuuuu
(PID.TID 0000.0001) //    248 ssssssssssssssssssssssssssssssssssssssssssssssssssssssssssssssssssssssssssssssssssssssssssssssssssssssssssssssssssssssssssssssssssssssssssssssssssssssssssssssssssssssssssssssssssssssssssssssssssssssssssssssssssssssssssssssssssssssssssssssssssssssssssssssssssssssssssssssssssssssssssssssssssssssssssssssssssssssssssssssssssssssssssssssssssssssssssssssssssssssssssssssss
(PID.TID 0000.0001) //    247 rrrrrrrrrrrrrrrrrrrrrrrrrrrrrrrrrrrrrrrrrrrrrrrrrrrrrrrrrrrrrrrrrrrrrrrrrrrrrrrrrrrrrrrrrrrrrrrrrrrrrrrrrrrrrrrrrrrrrrrrrrrrrrrrrrrrrrrrrrrrrrrrrrrrrrrrrrrrrrrrrrrrrrrrrrrrrrrrrrrrrrrrrrrrrrrrrrrrrrrrrrrrrrrrrrrrrrrrrrrrrrrrrrrrrrrrrrrrrrrrrrrrrrrrrrrrrrrrrrrrrrrrrrrrrrrrrrrrrrrrrrrrrrrrrrrrrrrrrrrrrrrrrrrrrrrrrrrrrrrrrrrrrrrrrrrrrrrrrrrrrrrrrrrrrrrrrrrrrrrrrrrrrrrr
(PID.TID 0000.0001) //    246 pppppppppppppppppppppppppppppppppppppppppppppppppppppppppppppppppppppppppppppppppppppppppppppppppppppppppppppppppppppppppppppppppppppppppppppppppppppppppppppppppppppppppppppppppppppppppppppppppppppppppppppppppppppppppppppppppppppppppppppppppppppppppppppppppppppppppppppppppppppppppppppppppppppppppppppppppppppppppppppppppppppppppppppppppppppppppppppppppppppppppppppppp
(PID.TID 0000.0001) //    245 nnnnnnnnnnnnnnnnnnnnnnnnnnnnnnnnnnnnnnnnnnnnnnnnnnnnnnnnnnnnnnnnnnnnnnnnnnnnnnnnnnnnnnnnnnnnnnnnnnnnnnnnnnnnnnnnnnnnnnnnnnnnnnnnnnnnnnnnnnnnnnnnnnnnnnnnnnnnnnnnnnnnnnnnnnnnnnnnnnnnnnnnnnnnnnnnnnnnnnnnnnnnnnnnnnnnnnnnnnnnnnnnnnnnnnnnnnnnnnnnnnnnnnnnnnnnnnnnnnnnnnnnnnnnnnnnnnnnnnnnnnnnnnnnnnnnnnnnnnnnnnnnnnnnnnnnnnnnnnnnnnnnnnnnnnnnnnnnnnnnnnnnnnnnnnnnnnnnnnnnnnnnnnnn
(PID.TID 0000.0001) //    244 nnnnnnnnnnnnnnnnnnnnnnnnnnnnnnnnnnnnnnnnnnnnnnnnnnnnnnnnnnnnnnnnnnnnnnnnnnnnnnnnnnnnnnnnnnnnnnnnnnnnnnnnnnnnnnnnnnnnnnnnnnnnnnnnnnnnnnnnnnnnnnnnnnnnnnnnnnnnnnnnnnnnnnnnnnnnnnnnnnnnnnnnnnnnnnnnnnnnnnnnnnnnnnnnnnnnnnnnnnnnnnnnnnnnnnnnnnnnnnnnnnnnnnnnnnnnnnnnnnnnnnnnnnnnnnnnnnnnnnnnnnnnnnnnnnnnnnnnnnnnnnnnnnnnnnnnnnnnnnnnnnnnnnnnnnnnnnnnnnnnnnnnnnnnnnnnnnnnnnnnnnnnnnnn
(PID.TID 0000.0001) //    243 llllllllllllllllllllllllllllllllllllllllllllllllllllllllllllllllllllllllllllllllllllllllllllllllllllllllllllllllllllllllllllllllllllllllllllllllllllllllllllllllllllllllllllllllllllllllllllllllllllllllllllllllllllllllllllllllllllllllllllllllllllllllllllllllllllllllllllllllllllllllllllllllllllllllllllllllllllllllllllllllllllllllllllllllllllllllllllllllllllllllllllllll
(PID.TID 0000.0001) //    242 llllllllllllllllllllllllllllllllllllllllllllllllllllllllllllllllllllllllllllllllllllllllllllllllllllllllllllllllllllllllllllllllllllllllllllllllllllllllllllllllllllllllllllllllllllllllllllllllllllllllllllllllllllllllllllllllllllllllllllllllllllllllllllllllllllllllllllllllllllllllllllllllllllllllllllllllllllllllllllllllllllllllllllllllllllllllllllllllllllllllllllllll
(PID.TID 0000.0001) //    241 jjjjjjjjjjjjjjjjjjjjjjjjjjjjjjjjjjjjjjjjjjjjjjjjjjjjjjjjjjjjjjjjjjjjjjjjjjjjjjjjjjjjjjjjjjjjjjjjjjjjjjjjjjjjjjjjjjjjjjjjjjjjjjjjjjjjjjjjjjjjjjjjjjjjjjjjjjjjjjjjjjjjjjjjjjjjjjjjjjjjjjjjjjjjjjjjjjjjjjjjjjjjjjjjjjjjjjjjjjjjjjjjjjjjjjjjjjjjjjjjjjjjjjjjjjjjjjjjjjjjjjjjjjjjjjjjjjjjjjjjjjjjjjjjjjjjjjjjjjjjjjjjjjjjjjjjjjjjjjjjjjjjjjjjjjjjjjjjjjjjjjjjjjjjjjjjjjjjjjjjjjjjjjjj
(PID.TID 0000.0001) //    240 jjjjjjjjjjjjjjjjjjjjjjjjjjjjjjjjjjjjjjjjjjjjjjjjjjjjjjjjjjjjjjjjjjjjjjjjjjjjjjjjjjjjjjjjjjjjjjjjjjjjjjjjjjjjjjjjjjjjjjjjjjjjjjjjjjjjjjjjjjjjjjjjjjjjjjjjjjjjjjjjjjjjjjjjjjjjjjjjjjjjjjjjjjjjjjjjjjjjjjjjjjjjjjjjjjjjjjjjjjjjjjjjjjjjjjjjjjjjjjjjjjjjjjjjjjjjjjjjjjjjjjjjjjjjjjjjjjjjjjjjjjjjjjjjjjjjjjjjjjjjjjjjjjjjjjjjjjjjjjjjjjjjjjjjjjjjjjjjjjjjjjjjjjjjjjjjjjjjjjjjjjjjjjjj
(PID.TID 0000.0001) //    239 gggggggggggggggggggggggggggggggggggggggggggggggggggggggggggggggggggggggggggggggggggggggggggggggggggggggggggggggggggggggggggggggggggggggggggggggggggggggggggggggggggggggggggggggggggggggggggggggggggggggggggggggggggggggggggggggggggggggggggggggggggggggggggggggggggggggggggggggggggggggggggggggggggggggggggggggggggggggggggggggggggggggggggggggggggggggggggggggggggggggggggggggg
(PID.TID 0000.0001) //    238 gggggggggggggggggggggggggggggggggggggggggggggggggggggggggggggggggggggggggggggggggggggggggggggggggggggggggggggggggggggggggggggggggggggggggggggggggggggggggggggggggggggggggggggggggggggggggggggggggggggggggggggggggggggggggggggggggggggggggggggggggggggggggggggggggggggggggggggggggggggggggggggggggggggggggggggggggggggggggggggggggggggggggggggggggggggggggggggggggggggggggggggggg
(PID.TID 0000.0001) //    243 llllllllllllllllllllllllllllllllllllllllllllllllllllllllllllllllllllllllllllllllllllllllllllllllllllllllllllllllllllllllllllllllllllllllllllllllllllllllllllllllllllllllllllllllllllllllllllllllllllllllllllllllllllllllllllllllllllllllllllllllllllllllllllllllllllllllllllllllllllllllllllllllllllllllllllllllllllllllllllllllllllllllllllllllllllllllllllllllllllllllllllllll
(PID.TID 0000.0001) //    242 llllllllllllllllllllllllllllllllllllllllllllllllllllllllllllllllllllllllllllllllllllllllllllllllllllllllllllllllllllllllllllllllllllllllllllllllllllllllllllllllllllllllllllllllllllllllllllllllllllllllllllllllllllllllllllllllllllllllllllllllllllllllllllllllllllllllllllllllllllllllllllllllllllllllllllllllllllllllllllllllllllllllllllllllllllllllllllllllllllllllllllllll
(PID.TID 0000.0001) //    241 jjjjjjjjjjjjjjjjjjjjjjjjjjjjjjjjjjjjjjjjjjjjjjjjjjjjjjjjjjjjjjjjjjjjjjjjjjjjjjjjjjjjjjjjjjjjjjjjjjjjjjjjjjjjjjjjjjjjjjjjjjjjjjjjjjjjjjjjjjjjjjjjjjjjjjjjjjjjjjjjjjjjjjjjjjjjjjjjjjjjjjjjjjjjjjjjjjjjjjjjjjjjjjjjjjjjjjjjjjjjjjjjjjjjjjjjjjjjjjjjjjjjjjjjjjjjjjjjjjjjjjjjjjjjjjjjjjjjjjjjjjjjjjjjjjjjjjjjjjjjjjjjjjjjjjjjjjjjjjjjjjjjjjjjjjjjjjjjjjjjjjjjjjjjjjjjjjjjjjjjjjjjjjjj
(PID.TID 0000.0001) //    240 jjjjjjjjjjjjjjjjjjjjjjjjjjjjjjjjjjjjjjjjjjjjjjjjjjjjjjjjjjjjjjjjjjjjjjjjjjjjjjjjjjjjjjjjjjjjjjjjjjjjjjjjjjjjjjjjjjjjjjjjjjjjjjjjjjjjjjjjjjjjjjjjjjjjjjjjjjjjjjjjjjjjjjjjjjjjjjjjjjjjjjjjjjjjjjjjjjjjjjjjjjjjjjjjjjjjjjjjjjjjjjjjjjjjjjjjjjjjjjjjjjjjjjjjjjjjjjjjjjjjjjjjjjjjjjjjjjjjjjjjjjjjjjjjjjjjjjjjjjjjjjjjjjjjjjjjjjjjjjjjjjjjjjjjjjjjjjjjjjjjjjjjjjjjjjjjjjjjjjjjjjjjjjjj
(PID.TID 0000.0001) //    239 gggggggggggggggggggggggggggggggggggggggggggggggggggggggggggggggggggggggggggggggggggggggggggggggggggggggggggggggggggggggggggggggggggggggggggggggggggggggggggggggggggggggggggggggggggggggggggggggggggggggggggggggggggggggggggggggggggggggggggggggggggggggggggggggggggggggggggggggggggggggggggggggggggggggggggggggggggggggggggggggggggggggggggggggggggggggggggggggggggggggggggggggg
(PID.TID 0000.0001) //    238 gggggggggggggggggggggggggggggggggggggggggggggggggggggggggggggggggggggggggggggggggggggggggggggggggggggggggggggggggggggggggggggggggggggggggggggggggggggggggggggggggggggggggggggggggggggggggggggggggggggggggggggggggggggggggggggggggggggggggggggggggggggggggggggggggggggggggggggggggggggggggggggggggggggggggggggggggggggggggggggggggggggggggggggggggggggggggggggggggggggggggggggggg
(PID.TID 0000.0001) //    237 dddddddddddddddddddddddddddddddddddddddddddddddddddddddddddddddddddddddddddddddddddddddddddddddddddddddddddddddddddddddddddddddddddddddddddddddddddddddddddddddddddddddddddddddddddddddddddddddddddddddddddddddddddddddddddddddddddddddddddddddddddddddddddddddddddddddddddddddddddddddddddddddddddddddddddddddddddddddddddddddddddddddddddddddddddddddddddddddddddddddddddddddd
(PID.TID 0000.0001) //    236 dddddddddddddddddddddddddddddddddddddddddddddddddddddddddddddddddddddddddddddddddddddddddddddddddddddddddddddddddddddddddddddddddddddddddddddddddddddddddddddddddddddddddddddddddddddddddddddddddddddddddddddddddddddddddddddddddddddddddddddddddddddddddddddddddddddddddddddddddddddddddddddddddddddddddddddddddddddddddddddddddddddddddddddddddddddddddddddddddddddddddddddddd
(PID.TID 0000.0001) //    235 dddddddddddddddddddddddddddddddddddddddddddddddddddddddddddddddddddddddddddddddddddddddddddddddddddddddddddddddddddddddddddddddddddddddddddddddddddddddddddddddddddddddddddddddddddddddddddddddddddddddddddddddddddddddddddddddddddddddddddddddddddddddddddddddddddddddddddddddddddddddddddddddddddddddddddddddddddddddddddddddddddddddddddddddddddddddddddddddddddddddddddddddd
(PID.TID 0000.0001) //    234 --------------------------------------------------------------------------------------------------------------------------------------------------------------------------------------------------------------------------------------------------------------------------------------------------------------------------------------------------------------------------------
(PID.TID 0000.0001) //    233 --------------------------------------------------------------------------------------------------------------------------------------------------------------------------------------------------------------------------------------------------------------------------------------------------------------------------------------------------------------------------------
(PID.TID 0000.0001) //    232 --------------------------------------------------------------------------------------------------------------------------------------------------------------------------------------------------------------------------------------------------------------------------------------------------------------------------------------------------------------------------------
(PID.TID 0000.0001) //    231 --------------------------------------------------------------------------------------------------------------------------------------------------------------------------------------------------------------------------------------------------------------------------------------------------------------------------------------------------------------------------------
(PID.TID 0000.0001) //    230 --------------------------------------------------------------------------------------------------------------------------------------------------------------------------------------------------------------------------------------------------------------------------------------------------------------------------------------------------------------------------------
(PID.TID 0000.0001) //    229 --------------------------------------------------------------------------------------------------------------------------------------------------------------------------------------------------------------------------------------------------------------------------------------------------------------------------------------------------------------------------------
(PID.TID 0000.0001) //    228 --------------------------------------------------------------------------------------------------------------------------------------------------------------------------------------------------------------------------------------------------------------------------------------------------------------------------------------------------------------------------------
(PID.TID 0000.0001) //    227 --------------------------------------------------------------------------------------------------------------------------------------------------------------------------------------------------------------------------------------------------------------------------------------------------------------------------------------------------------------------------------
(PID.TID 0000.0001) //    226 --------------------------------------------------------------------------------------------------------------------------------------------------------------------------------------------------------------------------------------------------------------------------------------------------------------------------------------------------------------------------------
(PID.TID 0000.0001) //    225 --------------------------------------------------------------------------------------------------------------------------------------------------------------------------------------------------------------------------------------------------------------------------------------------------------------------------------------------------------------------------------
(PID.TID 0000.0001) //    224 --------------------------------------------------------------------------------------------------------------------------------------------------------------------------------------------------------------------------------------------------------------------------------------------------------------------------------------------------------------------------------
(PID.TID 0000.0001) //    223 --------------------------------------------------------------------------------------------------------------------------------------------------------------------------------------------------------------------------------------------------------------------------------------------------------------------------------------------------------------------------------
(PID.TID 0000.0001) //    222 --------------------------------------------------------------------------------------------------------------------------------------------------------------------------------------------------------------------------------------------------------------------------------------------------------------------------------------------------------------------------------
(PID.TID 0000.0001) //    221 --------------------------------------------------------------------------------------------------------------------------------------------------------------------------------------------------------------------------------------------------------------------------------------------------------------------------------------------------------------------------------
(PID.TID 0000.0001) //    220 --------------------------------------------------------------------------------------------------------------------------------------------------------------------------------------------------------------------------------------------------------------------------------------------------------------------------------------------------------------------------------
(PID.TID 0000.0001) //    219 --------------------------------------------------------------------------------------------------------------------------------------------------------------------------------------------------------------------------------------------------------------------------------------------------------------------------------------------------------------------------------
(PID.TID 0000.0001) //    218 --------------------------------------------------------------------------------------------------------------------------------------------------------------------------------------------------------------------------------------------------------------------------------------------------------------------------------------------------------------------------------
(PID.TID 0000.0001) //    223 --------------------------------------------------------------------------------------------------------------------------------------------------------------------------------------------------------------------------------------------------------------------------------------------------------------------------------------------------------------------------------
(PID.TID 0000.0001) //    222 --------------------------------------------------------------------------------------------------------------------------------------------------------------------------------------------------------------------------------------------------------------------------------------------------------------------------------------------------------------------------------
(PID.TID 0000.0001) //    221 --------------------------------------------------------------------------------------------------------------------------------------------------------------------------------------------------------------------------------------------------------------------------------------------------------------------------------------------------------------------------------
(PID.TID 0000.0001) //    220 --------------------------------------------------------------------------------------------------------------------------------------------------------------------------------------------------------------------------------------------------------------------------------------------------------------------------------------------------------------------------------
(PID.TID 0000.0001) //    219 --------------------------------------------------------------------------------------------------------------------------------------------------------------------------------------------------------------------------------------------------------------------------------------------------------------------------------------------------------------------------------
(PID.TID 0000.0001) //    218 --------------------------------------------------------------------------------------------------------------------------------------------------------------------------------------------------------------------------------------------------------------------------------------------------------------------------------------------------------------------------------
(PID.TID 0000.0001) //    217 --------------------------------------------------------------------------------------------------------------------------------------------------------------------------------------------------------------------------------------------------------------------------------------------------------------------------------------------------------------------------------
(PID.TID 0000.0001) //    216 --------------------------------------------------------------------------------------------------------------------------------------------------------------------------------------------------------------------------------------------------------------------------------------------------------------------------------------------------------------------------------
(PID.TID 0000.0001) //    215 --------------------------------------------------------------------------------------------------------------------------------------------------------------------------------------------------------------------------------------------------------------------------------------------------------------------------------------------------------------------------------
(PID.TID 0000.0001) //    214 --------------------------------------------------------------------------------------------------------------------------------------------------------------------------------------------------------------------------------------------------------------------------------------------------------------------------------------------------------------------------------
(PID.TID 0000.0001) //    213 --------------------------------------------------------------------------------------------------------------------------------------------------------------------------------------------------------------------------------------------------------------------------------------------------------------------------------------------------------------------------------
(PID.TID 0000.0001) //    212 --------------------------------------------------------------------------------------------------------------------------------------------------------------------------------------------------------------------------------------------------------------------------------------------------------------------------------------------------------------------------------
(PID.TID 0000.0001) //    211 --------------------------------------------------------------------------------------------------------------------------------------------------------------------------------------------------------------------------------------------------------------------------------------------------------------------------------------------------------------------------------
(PID.TID 0000.0001) //    210 --------------------------------------------------------------------------------------------------------------------------------------------------------------------------------------------------------------------------------------------------------------------------------------------------------------------------------------------------------------------------------
(PID.TID 0000.0001) //    209 --------------------------------------------------------------------------------------------------------------------------------------------------------------------------------------------------------------------------------------------------------------------------------------------------------------------------------------------------------------------------------
(PID.TID 0000.0001) //    208 --------------------------------------------------------------------------------------------------------------------------------------------------------------------------------------------------------------------------------------------------------------------------------------------------------------------------------------------------------------------------------
(PID.TID 0000.0001) //    207 --------------------------------------------------------------------------------------------------------------------------------------------------------------------------------------------------------------------------------------------------------------------------------------------------------------------------------------------------------------------------------
(PID.TID 0000.0001) //    206 --------------------------------------------------------------------------------------------------------------------------------------------------------------------------------------------------------------------------------------------------------------------------------------------------------------------------------------------------------------------------------
(PID.TID 0000.0001) //    205 --------------------------------------------------------------------------------------------------------------------------------------------------------------------------------------------------------------------------------------------------------------------------------------------------------------------------------------------------------------------------------
(PID.TID 0000.0001) //    204 --------------------------------------------------------------------------------------------------------------------------------------------------------------------------------------------------------------------------------------------------------------------------------------------------------------------------------------------------------------------------------
(PID.TID 0000.0001) //    203 --------------------------------------------------------------------------------------------------------------------------------------------------------------------------------------------------------------------------------------------------------------------------------------------------------------------------------------------------------------------------------
(PID.TID 0000.0001) //    202 --------------------------------------------------------------------------------------------------------------------------------------------------------------------------------------------------------------------------------------------------------------------------------------------------------------------------------------------------------------------------------
(PID.TID 0000.0001) //    201 --------------------------------------------------------------------------------------------------------------------------------------------------------------------------------------------------------------------------------------------------------------------------------------------------------------------------------------------------------------------------------
(PID.TID 0000.0001) //    200 --------------------------------------------------------------------------------------------------------------------------------------------------------------------------------------------------------------------------------------------------------------------------------------------------------------------------------------------------------------------------------
(PID.TID 0000.0001) //    199 --------------------------------------------------------------------------------------------------------------------------------------------------------------------------------------------------------------------------------------------------------------------------------------------------------------------------------------------------------------------------------
(PID.TID 0000.0001) //    198 --------------------------------------------------------------------------------------------------------------------------------------------------------------------------------------------------------------------------------------------------------------------------------------------------------------------------------------------------------------------------------
(PID.TID 0000.0001) //    203 --------------------------------------------------------------------------------------------------------------------------------------------------------------------------------------------------------------------------------------------------------------------------------------------------------------------------------------------------------------------------------
(PID.TID 0000.0001) //    202 --------------------------------------------------------------------------------------------------------------------------------------------------------------------------------------------------------------------------------------------------------------------------------------------------------------------------------------------------------------------------------
(PID.TID 0000.0001) //    201 --------------------------------------------------------------------------------------------------------------------------------------------------------------------------------------------------------------------------------------------------------------------------------------------------------------------------------------------------------------------------------
(PID.TID 0000.0001) //    200 --------------------------------------------------------------------------------------------------------------------------------------------------------------------------------------------------------------------------------------------------------------------------------------------------------------------------------------------------------------------------------
(PID.TID 0000.0001) //    199 --------------------------------------------------------------------------------------------------------------------------------------------------------------------------------------------------------------------------------------------------------------------------------------------------------------------------------------------------------------------------------
(PID.TID 0000.0001) //    198 --------------------------------------------------------------------------------------------------------------------------------------------------------------------------------------------------------------------------------------------------------------------------------------------------------------------------------------------------------------------------------
(PID.TID 0000.0001) //    197 --------------------------------------------------------------------------------------------------------------------------------------------------------------------------------------------------------------------------------------------------------------------------------------------------------------------------------------------------------------------------------
(PID.TID 0000.0001) //    196 --------------------------------------------------------------------------------------------------------------------------------------------------------------------------------------------------------------------------------------------------------------------------------------------------------------------------------------------------------------------------------
(PID.TID 0000.0001) //    195 --------------------------------------------------------------------------------------------------------------------------------------------------------------------------------------------------------------------------------------------------------------------------------------------------------------------------------------------------------------------------------
(PID.TID 0000.0001) //    194 --------------------------------------------------------------------------------------------------------------------------------------------------------------------------------------------------------------------------------------------------------------------------------------------------------------------------------------------------------------------------------
(PID.TID 0000.0001) //    193 --------------------------------------------------------------------------------------------------------------------------------------------------------------------------------------------------------------------------------------------------------------------------------------------------------------------------------------------------------------------------------
(PID.TID 0000.0001) //    192 --------------------------------------------------------------------------------------------------------------------------------------------------------------------------------------------------------------------------------------------------------------------------------------------------------------------------------------------------------------------------------
(PID.TID 0000.0001) //    191 --------------------------------------------------------------------------------------------------------------------------------------------------------------------------------------------------------------------------------------------------------------------------------------------------------------------------------------------------------------------------------
(PID.TID 0000.0001) //    190 --------------------------------------------------------------------------------------------------------------------------------------------------------------------------------------------------------------------------------------------------------------------------------------------------------------------------------------------------------------------------------
(PID.TID 0000.0001) //    189 --------------------------------------------------------------------------------------------------------------------------------------------------------------------------------------------------------------------------------------------------------------------------------------------------------------------------------------------------------------------------------
(PID.TID 0000.0001) //    188 --------------------------------------------------------------------------------------------------------------------------------------------------------------------------------------------------------------------------------------------------------------------------------------------------------------------------------------------------------------------------------
(PID.TID 0000.0001) //    187 --------------------------------------------------------------------------------------------------------------------------------------------------------------------------------------------------------------------------------------------------------------------------------------------------------------------------------------------------------------------------------
(PID.TID 0000.0001) //    186 --------------------------------------------------------------------------------------------------------------------------------------------------------------------------------------------------------------------------------------------------------------------------------------------------------------------------------------------------------------------------------
(PID.TID 0000.0001) //    185 --------------------------------------------------------------------------------------------------------------------------------------------------------------------------------------------------------------------------------------------------------------------------------------------------------------------------------------------------------------------------------
(PID.TID 0000.0001) //    184 --------------------------------------------------------------------------------------------------------------------------------------------------------------------------------------------------------------------------------------------------------------------------------------------------------------------------------------------------------------------------------
(PID.TID 0000.0001) //    183 --------------------------------------------------------------------------------------------------------------------------------------------------------------------------------------------------------------------------------------------------------------------------------------------------------------------------------------------------------------------------------
(PID.TID 0000.0001) //    182 --------------------------------------------------------------------------------------------------------------------------------------------------------------------------------------------------------------------------------------------------------------------------------------------------------------------------------------------------------------------------------
(PID.TID 0000.0001) //    181 --------------------------------------------------------------------------------------------------------------------------------------------------------------------------------------------------------------------------------------------------------------------------------------------------------------------------------------------------------------------------------
(PID.TID 0000.0001) //    180 --------------------------------------------------------------------------------------------------------------------------------------------------------------------------------------------------------------------------------------------------------------------------------------------------------------------------------------------------------------------------------
(PID.TID 0000.0001) //    179 --------------------------------------------------------------------------------------------------------------------------------------------------------------------------------------------------------------------------------------------------------------------------------------------------------------------------------------------------------------------------------
(PID.TID 0000.0001) //    178 --------------------------------------------------------------------------------------------------------------------------------------------------------------------------------------------------------------------------------------------------------------------------------------------------------------------------------------------------------------------------------
(PID.TID 0000.0001) //    183 --------------------------------------------------------------------------------------------------------------------------------------------------------------------------------------------------------------------------------------------------------------------------------------------------------------------------------------------------------------------------------
(PID.TID 0000.0001) //    182 --------------------------------------------------------------------------------------------------------------------------------------------------------------------------------------------------------------------------------------------------------------------------------------------------------------------------------------------------------------------------------
(PID.TID 0000.0001) //    181 --------------------------------------------------------------------------------------------------------------------------------------------------------------------------------------------------------------------------------------------------------------------------------------------------------------------------------------------------------------------------------
(PID.TID 0000.0001) //    180 --------------------------------------------------------------------------------------------------------------------------------------------------------------------------------------------------------------------------------------------------------------------------------------------------------------------------------------------------------------------------------
(PID.TID 0000.0001) //    179 --------------------------------------------------------------------------------------------------------------------------------------------------------------------------------------------------------------------------------------------------------------------------------------------------------------------------------------------------------------------------------
(PID.TID 0000.0001) //    178 --------------------------------------------------------------------------------------------------------------------------------------------------------------------------------------------------------------------------------------------------------------------------------------------------------------------------------------------------------------------------------
(PID.TID 0000.0001) //    177 --------------------------------------------------------------------------------------------------------------------------------------------------------------------------------------------------------------------------------------------------------------------------------------------------------------------------------------------------------------------------------
(PID.TID 0000.0001) //    176 --------------------------------------------------------------------------------------------------------------------------------------------------------------------------------------------------------------------------------------------------------------------------------------------------------------------------------------------------------------------------------
(PID.TID 0000.0001) //    175 --------------------------------------------------------------------------------------------------------------------------------------------------------------------------------------------------------------------------------------------------------------------------------------------------------------------------------------------------------------------------------
(PID.TID 0000.0001) //    174 --------------------------------------------------------------------------------------------------------------------------------------------------------------------------------------------------------------------------------------------------------------------------------------------------------------------------------------------------------------------------------
(PID.TID 0000.0001) //    173 --------------------------------------------------------------------------------------------------------------------------------------------------------------------------------------------------------------------------------------------------------------------------------------------------------------------------------------------------------------------------------
(PID.TID 0000.0001) //    172 --------------------------------------------------------------------------------------------------------------------------------------------------------------------------------------------------------------------------------------------------------------------------------------------------------------------------------------------------------------------------------
(PID.TID 0000.0001) //    171 --------------------------------------------------------------------------------------------------------------------------------------------------------------------------------------------------------------------------------------------------------------------------------------------------------------------------------------------------------------------------------
(PID.TID 0000.0001) //    170 --------------------------------------------------------------------------------------------------------------------------------------------------------------------------------------------------------------------------------------------------------------------------------------------------------------------------------------------------------------------------------
(PID.TID 0000.0001) //    169 --------------------------------------------------------------------------------------------------------------------------------------------------------------------------------------------------------------------------------------------------------------------------------------------------------------------------------------------------------------------------------
(PID.TID 0000.0001) //    168 --------------------------------------------------------------------------------------------------------------------------------------------------------------------------------------------------------------------------------------------------------------------------------------------------------------------------------------------------------------------------------
(PID.TID 0000.0001) //    167 --------------------------------------------------------------------------------------------------------------------------------------------------------------------------------------------------------------------------------------------------------------------------------------------------------------------------------------------------------------------------------
(PID.TID 0000.0001) //    166 --------------------------------------------------------------------------------------------------------------------------------------------------------------------------------------------------------------------------------------------------------------------------------------------------------------------------------------------------------------------------------
(PID.TID 0000.0001) //    165 --------------------------------------------------------------------------------------------------------------------------------------------------------------------------------------------------------------------------------------------------------------------------------------------------------------------------------------------------------------------------------
(PID.TID 0000.0001) //    164 --------------------------------------------------------------------------------------------------------------------------------------------------------------------------------------------------------------------------------------------------------------------------------------------------------------------------------------------------------------------------------
(PID.TID 0000.0001) //    163 --------------------------------------------------------------------------------------------------------------------------------------------------------------------------------------------------------------------------------------------------------------------------------------------------------------------------------------------------------------------------------
(PID.TID 0000.0001) //    162 --------------------------------------------------------------------------------------------------------------------------------------------------------------------------------------------------------------------------------------------------------------------------------------------------------------------------------------------------------------------------------
(PID.TID 0000.0001) //    161 --------------------------------------------------------------------------------------------------------------------------------------------------------------------------------------------------------------------------------------------------------------------------------------------------------------------------------------------------------------------------------
(PID.TID 0000.0001) //    160 --------------------------------------------------------------------------------------------------------------------------------------------------------------------------------------------------------------------------------------------------------------------------------------------------------------------------------------------------------------------------------
(PID.TID 0000.0001) //    159 --------------------------------------------------------------------------------------------------------------------------------------------------------------------------------------------------------------------------------------------------------------------------------------------------------------------------------------------------------------------------------
(PID.TID 0000.0001) //    158 --------------------------------------------------------------------------------------------------------------------------------------------------------------------------------------------------------------------------------------------------------------------------------------------------------------------------------------------------------------------------------
(PID.TID 0000.0001) //    163 --------------------------------------------------------------------------------------------------------------------------------------------------------------------------------------------------------------------------------------------------------------------------------------------------------------------------------------------------------------------------------
(PID.TID 0000.0001) //    162 --------------------------------------------------------------------------------------------------------------------------------------------------------------------------------------------------------------------------------------------------------------------------------------------------------------------------------------------------------------------------------
(PID.TID 0000.0001) //    161 --------------------------------------------------------------------------------------------------------------------------------------------------------------------------------------------------------------------------------------------------------------------------------------------------------------------------------------------------------------------------------
(PID.TID 0000.0001) //    160 --------------------------------------------------------------------------------------------------------------------------------------------------------------------------------------------------------------------------------------------------------------------------------------------------------------------------------------------------------------------------------
(PID.TID 0000.0001) //    159 --------------------------------------------------------------------------------------------------------------------------------------------------------------------------------------------------------------------------------------------------------------------------------------------------------------------------------------------------------------------------------
(PID.TID 0000.0001) //    158 --------------------------------------------------------------------------------------------------------------------------------------------------------------------------------------------------------------------------------------------------------------------------------------------------------------------------------------------------------------------------------
(PID.TID 0000.0001) //    157 --------------------------------------------------------------------------------------------------------------------------------------------------------------------------------------------------------------------------------------------------------------------------------------------------------------------------------------------------------------------------------
(PID.TID 0000.0001) //    156 --------------------------------------------------------------------------------------------------------------------------------------------------------------------------------------------------------------------------------------------------------------------------------------------------------------------------------------------------------------------------------
(PID.TID 0000.0001) //    155 --------------------------------------------------------------------------------------------------------------------------------------------------------------------------------------------------------------------------------------------------------------------------------------------------------------------------------------------------------------------------------
(PID.TID 0000.0001) //    154 --------------------------------------------------------------------------------------------------------------------------------------------------------------------------------------------------------------------------------------------------------------------------------------------------------------------------------------------------------------------------------
(PID.TID 0000.0001) //    153 --------------------------------------------------------------------------------------------------------------------------------------------------------------------------------------------------------------------------------------------------------------------------------------------------------------------------------------------------------------------------------
(PID.TID 0000.0001) //    152 --------------------------------------------------------------------------------------------------------------------------------------------------------------------------------------------------------------------------------------------------------------------------------------------------------------------------------------------------------------------------------
(PID.TID 0000.0001) //    151 --------------------------------------------------------------------------------------------------------------------------------------------------------------------------------------------------------------------------------------------------------------------------------------------------------------------------------------------------------------------------------
(PID.TID 0000.0001) //    150 --------------------------------------------------------------------------------------------------------------------------------------------------------------------------------------------------------------------------------------------------------------------------------------------------------------------------------------------------------------------------------
(PID.TID 0000.0001) //    149 --------------------------------------------------------------------------------------------------------------------------------------------------------------------------------------------------------------------------------------------------------------------------------------------------------------------------------------------------------------------------------
(PID.TID 0000.0001) //    148 --------------------------------------------------------------------------------------------------------------------------------------------------------------------------------------------------------------------------------------------------------------------------------------------------------------------------------------------------------------------------------
(PID.TID 0000.0001) //    147 --------------------------------------------------------------------------------------------------------------------------------------------------------------------------------------------------------------------------------------------------------------------------------------------------------------------------------------------------------------------------------
(PID.TID 0000.0001) //    146 --------------------------------------------------------------------------------------------------------------------------------------------------------------------------------------------------------------------------------------------------------------------------------------------------------------------------------------------------------------------------------
(PID.TID 0000.0001) //    145 --------------------------------------------------------------------------------------------------------------------------------------------------------------------------------------------------------------------------------------------------------------------------------------------------------------------------------------------------------------------------------
(PID.TID 0000.0001) //    144 --------------------------------------------------------------------------------------------------------------------------------------------------------------------------------------------------------------------------------------------------------------------------------------------------------------------------------------------------------------------------------
(PID.TID 0000.0001) //    143 --------------------------------------------------------------------------------------------------------------------------------------------------------------------------------------------------------------------------------------------------------------------------------------------------------------------------------------------------------------------------------
(PID.TID 0000.0001) //    142 --------------------------------------------------------------------------------------------------------------------------------------------------------------------------------------------------------------------------------------------------------------------------------------------------------------------------------------------------------------------------------
(PID.TID 0000.0001) //    141 --------------------------------------------------------------------------------------------------------------------------------------------------------------------------------------------------------------------------------------------------------------------------------------------------------------------------------------------------------------------------------
(PID.TID 0000.0001) //    140 --------------------------------------------------------------------------------------------------------------------------------------------------------------------------------------------------------------------------------------------------------------------------------------------------------------------------------------------------------------------------------
(PID.TID 0000.0001) //    139 --------------------------------------------------------------------------------------------------------------------------------------------------------------------------------------------------------------------------------------------------------------------------------------------------------------------------------------------------------------------------------
(PID.TID 0000.0001) //    138 --------------------------------------------------------------------------------------------------------------------------------------------------------------------------------------------------------------------------------------------------------------------------------------------------------------------------------------------------------------------------------
(PID.TID 0000.0001) //    143 --------------------------------------------------------------------------------------------------------------------------------------------------------------------------------------------------------------------------------------------------------------------------------------------------------------------------------------------------------------------------------
(PID.TID 0000.0001) //    142 --------------------------------------------------------------------------------------------------------------------------------------------------------------------------------------------------------------------------------------------------------------------------------------------------------------------------------------------------------------------------------
(PID.TID 0000.0001) //    141 --------------------------------------------------------------------------------------------------------------------------------------------------------------------------------------------------------------------------------------------------------------------------------------------------------------------------------------------------------------------------------
(PID.TID 0000.0001) //    140 --------------------------------------------------------------------------------------------------------------------------------------------------------------------------------------------------------------------------------------------------------------------------------------------------------------------------------------------------------------------------------
(PID.TID 0000.0001) //    139 --------------------------------------------------------------------------------------------------------------------------------------------------------------------------------------------------------------------------------------------------------------------------------------------------------------------------------------------------------------------------------
(PID.TID 0000.0001) //    138 --------------------------------------------------------------------------------------------------------------------------------------------------------------------------------------------------------------------------------------------------------------------------------------------------------------------------------------------------------------------------------
(PID.TID 0000.0001) //    137 --------------------------------------------------------------------------------------------------------------------------------------------------------------------------------------------------------------------------------------------------------------------------------------------------------------------------------------------------------------------------------
(PID.TID 0000.0001) //    136 --------------------------------------------------------------------------------------------------------------------------------------------------------------------------------------------------------------------------------------------------------------------------------------------------------------------------------------------------------------------------------
(PID.TID 0000.0001) //    135 --------------------------------------------------------------------------------------------------------------------------------------------------------------------------------------------------------------------------------------------------------------------------------------------------------------------------------------------------------------------------------
(PID.TID 0000.0001) //    134 --------------------------------------------------------------------------------------------------------------------------------------------------------------------------------------------------------------------------------------------------------------------------------------------------------------------------------------------------------------------------------
(PID.TID 0000.0001) //    133 --------------------------------------------------------------------------------------------------------------------------------------------------------------------------------------------------------------------------------------------------------------------------------------------------------------------------------------------------------------------------------
(PID.TID 0000.0001) //    132 --------------------------------------------------------------------------------------------------------------------------------------------------------------------------------------------------------------------------------------------------------------------------------------------------------------------------------------------------------------------------------
(PID.TID 0000.0001) //    131 --------------------------------------------------------------------------------------------------------------------------------------------------------------------------------------------------------------------------------------------------------------------------------------------------------------------------------------------------------------------------------
(PID.TID 0000.0001) //    130 --------------------------------------------------------------------------------------------------------------------------------------------------------------------------------------------------------------------------------------------------------------------------------------------------------------------------------------------------------------------------------
(PID.TID 0000.0001) //    129 --------------------------------------------------------------------------------------------------------------------------------------------------------------------------------------------------------------------------------------------------------------------------------------------------------------------------------------------------------------------------------
(PID.TID 0000.0001) //    128 --------------------------------------------------------------------------------------------------------------------------------------------------------------------------------------------------------------------------------------------------------------------------------------------------------------------------------------------------------------------------------
(PID.TID 0000.0001) //    127 --------------------------------------------------------------------------------------------------------------------------------------------------------------------------------------------------------------------------------------------------------------------------------------------------------------------------------------------------------------------------------
(PID.TID 0000.0001) //    126 --------------------------------------------------------------------------------------------------------------------------------------------------------------------------------------------------------------------------------------------------------------------------------------------------------------------------------------------------------------------------------
(PID.TID 0000.0001) //    125 --------------------------------------------------------------------------------------------------------------------------------------------------------------------------------------------------------------------------------------------------------------------------------------------------------------------------------------------------------------------------------
(PID.TID 0000.0001) //    124 --------------------------------------------------------------------------------------------------------------------------------------------------------------------------------------------------------------------------------------------------------------------------------------------------------------------------------------------------------------------------------
(PID.TID 0000.0001) //    123 --------------------------------------------------------------------------------------------------------------------------------------------------------------------------------------------------------------------------------------------------------------------------------------------------------------------------------------------------------------------------------
(PID.TID 0000.0001) //    122 --------------------------------------------------------------------------------------------------------------------------------------------------------------------------------------------------------------------------------------------------------------------------------------------------------------------------------------------------------------------------------
(PID.TID 0000.0001) //    121 --------------------------------------------------------------------------------------------------------------------------------------------------------------------------------------------------------------------------------------------------------------------------------------------------------------------------------------------------------------------------------
(PID.TID 0000.0001) //    120 --------------------------------------------------------------------------------------------------------------------------------------------------------------------------------------------------------------------------------------------------------------------------------------------------------------------------------------------------------------------------------
(PID.TID 0000.0001) //    119 --------------------------------------------------------------------------------------------------------------------------------------------------------------------------------------------------------------------------------------------------------------------------------------------------------------------------------------------------------------------------------
(PID.TID 0000.0001) //    118 --------------------------------------------------------------------------------------------------------------------------------------------------------------------------------------------------------------------------------------------------------------------------------------------------------------------------------------------------------------------------------
(PID.TID 0000.0001) //    123 --------------------------------------------------------------------------------------------------------------------------------------------------------------------------------------------------------------------------------------------------------------------------------------------------------------------------------------------------------------------------------
(PID.TID 0000.0001) //    122 --------------------------------------------------------------------------------------------------------------------------------------------------------------------------------------------------------------------------------------------------------------------------------------------------------------------------------------------------------------------------------
(PID.TID 0000.0001) //    121 --------------------------------------------------------------------------------------------------------------------------------------------------------------------------------------------------------------------------------------------------------------------------------------------------------------------------------------------------------------------------------
(PID.TID 0000.0001) //    120 --------------------------------------------------------------------------------------------------------------------------------------------------------------------------------------------------------------------------------------------------------------------------------------------------------------------------------------------------------------------------------
(PID.TID 0000.0001) //    119 --------------------------------------------------------------------------------------------------------------------------------------------------------------------------------------------------------------------------------------------------------------------------------------------------------------------------------------------------------------------------------
(PID.TID 0000.0001) //    118 --------------------------------------------------------------------------------------------------------------------------------------------------------------------------------------------------------------------------------------------------------------------------------------------------------------------------------------------------------------------------------
(PID.TID 0000.0001) //    117 --------------------------------------------------------------------------------------------------------------------------------------------------------------------------------------------------------------------------------------------------------------------------------------------------------------------------------------------------------------------------------
(PID.TID 0000.0001) //    116 --------------------------------------------------------------------------------------------------------------------------------------------------------------------------------------------------------------------------------------------------------------------------------------------------------------------------------------------------------------------------------
(PID.TID 0000.0001) //    115 --------------------------------------------------------------------------------------------------------------------------------------------------------------------------------------------------------------------------------------------------------------------------------------------------------------------------------------------------------------------------------
(PID.TID 0000.0001) //    114 --------------------------------------------------------------------------------------------------------------------------------------------------------------------------------------------------------------------------------------------------------------------------------------------------------------------------------------------------------------------------------
(PID.TID 0000.0001) //    113 --------------------------------------------------------------------------------------------------------------------------------------------------------------------------------------------------------------------------------------------------------------------------------------------------------------------------------------------------------------------------------
(PID.TID 0000.0001) //    112 --------------------------------------------------------------------------------------------------------------------------------------------------------------------------------------------------------------------------------------------------------------------------------------------------------------------------------------------------------------------------------
(PID.TID 0000.0001) //    111 --------------------------------------------------------------------------------------------------------------------------------------------------------------------------------------------------------------------------------------------------------------------------------------------------------------------------------------------------------------------------------
(PID.TID 0000.0001) //    110 --------------------------------------------------------------------------------------------------------------------------------------------------------------------------------------------------------------------------------------------------------------------------------------------------------------------------------------------------------------------------------
(PID.TID 0000.0001) //    109 --------------------------------------------------------------------------------------------------------------------------------------------------------------------------------------------------------------------------------------------------------------------------------------------------------------------------------------------------------------------------------
(PID.TID 0000.0001) //    108 --------------------------------------------------------------------------------------------------------------------------------------------------------------------------------------------------------------------------------------------------------------------------------------------------------------------------------------------------------------------------------
(PID.TID 0000.0001) //    107 --------------------------------------------------------------------------------------------------------------------------------------------------------------------------------------------------------------------------------------------------------------------------------------------------------------------------------------------------------------------------------
(PID.TID 0000.0001) //    106 --------------------------------------------------------------------------------------------------------------------------------------------------------------------------------------------------------------------------------------------------------------------------------------------------------------------------------------------------------------------------------
(PID.TID 0000.0001) //    105 --------------------------------------------------------------------------------------------------------------------------------------------------------------------------------------------------------------------------------------------------------------------------------------------------------------------------------------------------------------------------------
(PID.TID 0000.0001) //    104 --------------------------------------------------------------------------------------------------------------------------------------------------------------------------------------------------------------------------------------------------------------------------------------------------------------------------------------------------------------------------------
(PID.TID 0000.0001) //    103 --------------------------------------------------------------------------------------------------------------------------------------------------------------------------------------------------------------------------------------------------------------------------------------------------------------------------------------------------------------------------------
(PID.TID 0000.0001) //    102 --------------------------------------------------------------------------------------------------------------------------------------------------------------------------------------------------------------------------------------------------------------------------------------------------------------------------------------------------------------------------------
(PID.TID 0000.0001) //    101 --------------------------------------------------------------------------------------------------------------------------------------------------------------------------------------------------------------------------------------------------------------------------------------------------------------------------------------------------------------------------------
(PID.TID 0000.0001) //    100 --------------------------------------------------------------------------------------------------------------------------------------------------------------------------------------------------------------------------------------------------------------------------------------------------------------------------------------------------------------------------------
(PID.TID 0000.0001) //     99 --------------------------------------------------------------------------------------------------------------------------------------------------------------------------------------------------------------------------------------------------------------------------------------------------------------------------------------------------------------------------------
(PID.TID 0000.0001) //     98 --------------------------------------------------------------------------------------------------------------------------------------------------------------------------------------------------------------------------------------------------------------------------------------------------------------------------------------------------------------------------------
(PID.TID 0000.0001) //    103 --------------------------------------------------------------------------------------------------------------------------------------------------------------------------------------------------------------------------------------------------------------------------------------------------------------------------------------------------------------------------------
(PID.TID 0000.0001) //    102 --------------------------------------------------------------------------------------------------------------------------------------------------------------------------------------------------------------------------------------------------------------------------------------------------------------------------------------------------------------------------------
(PID.TID 0000.0001) //    101 --------------------------------------------------------------------------------------------------------------------------------------------------------------------------------------------------------------------------------------------------------------------------------------------------------------------------------------------------------------------------------
(PID.TID 0000.0001) //    100 --------------------------------------------------------------------------------------------------------------------------------------------------------------------------------------------------------------------------------------------------------------------------------------------------------------------------------------------------------------------------------
(PID.TID 0000.0001) //     99 --------------------------------------------------------------------------------------------------------------------------------------------------------------------------------------------------------------------------------------------------------------------------------------------------------------------------------------------------------------------------------
(PID.TID 0000.0001) //     98 --------------------------------------------------------------------------------------------------------------------------------------------------------------------------------------------------------------------------------------------------------------------------------------------------------------------------------------------------------------------------------
(PID.TID 0000.0001) //     97 --------------------------------------------------------------------------------------------------------------------------------------------------------------------------------------------------------------------------------------------------------------------------------------------------------------------------------------------------------------------------------
(PID.TID 0000.0001) //     96 --------------------------------------------------------------------------------------------------------------------------------------------------------------------------------------------------------------------------------------------------------------------------------------------------------------------------------------------------------------------------------
(PID.TID 0000.0001) //     95 --------------------------------------------------------------------------------------------------------------------------------------------------------------------------------------------------------------------------------------------------------------------------------------------------------------------------------------------------------------------------------
(PID.TID 0000.0001) //     94 --------------------------------------------------------------------------------------------------------------------------------------------------------------------------------------------------------------------------------------------------------------------------------------------------------------------------------------------------------------------------------
(PID.TID 0000.0001) //     93 --------------------------------------------------------------------------------------------------------------------------------------------------------------------------------------------------------------------------------------------------------------------------------------------------------------------------------------------------------------------------------
(PID.TID 0000.0001) //     92 --------------------------------------------------------------------------------------------------------------------------------------------------------------------------------------------------------------------------------------------------------------------------------------------------------------------------------------------------------------------------------
(PID.TID 0000.0001) //     91 --------------------------------------------------------------------------------------------------------------------------------------------------------------------------------------------------------------------------------------------------------------------------------------------------------------------------------------------------------------------------------
(PID.TID 0000.0001) //     90 --------------------------------------------------------------------------------------------------------------------------------------------------------------------------------------------------------------------------------------------------------------------------------------------------------------------------------------------------------------------------------
(PID.TID 0000.0001) //     89 --------------------------------------------------------------------------------------------------------------------------------------------------------------------------------------------------------------------------------------------------------------------------------------------------------------------------------------------------------------------------------
(PID.TID 0000.0001) //     88 --------------------------------------------------------------------------------------------------------------------------------------------------------------------------------------------------------------------------------------------------------------------------------------------------------------------------------------------------------------------------------
(PID.TID 0000.0001) //     87 --------------------------------------------------------------------------------------------------------------------------------------------------------------------------------------------------------------------------------------------------------------------------------------------------------------------------------------------------------------------------------
(PID.TID 0000.0001) //     86 --------------------------------------------------------------------------------------------------------------------------------------------------------------------------------------------------------------------------------------------------------------------------------------------------------------------------------------------------------------------------------
(PID.TID 0000.0001) //     85 --------------------------------------------------------------------------------------------------------------------------------------------------------------------------------------------------------------------------------------------------------------------------------------------------------------------------------------------------------------------------------
(PID.TID 0000.0001) //     84 --------------------------------------------------------------------------------------------------------------------------------------------------------------------------------------------------------------------------------------------------------------------------------------------------------------------------------------------------------------------------------
(PID.TID 0000.0001) //     83 --------------------------------------------------------------------------------------------------------------------------------------------------------------------------------------------------------------------------------------------------------------------------------------------------------------------------------------------------------------------------------
(PID.TID 0000.0001) //     82 --------------------------------------------------------------------------------------------------------------------------------------------------------------------------------------------------------------------------------------------------------------------------------------------------------------------------------------------------------------------------------
(PID.TID 0000.0001) //     81 --------------------------------------------------------------------------------------------------------------------------------------------------------------------------------------------------------------------------------------------------------------------------------------------------------------------------------------------------------------------------------
(PID.TID 0000.0001) //     80 --------------------------------------------------------------------------------------------------------------------------------------------------------------------------------------------------------------------------------------------------------------------------------------------------------------------------------------------------------------------------------
(PID.TID 0000.0001) //     79 --------------------------------------------------------------------------------------------------------------------------------------------------------------------------------------------------------------------------------------------------------------------------------------------------------------------------------------------------------------------------------
(PID.TID 0000.0001) //     78 --------------------------------------------------------------------------------------------------------------------------------------------------------------------------------------------------------------------------------------------------------------------------------------------------------------------------------------------------------------------------------
(PID.TID 0000.0001) //     83 --------------------------------------------------------------------------------------------------------------------------------------------------------------------------------------------------------------------------------------------------------------------------------------------------------------------------------------------------------------------------------
(PID.TID 0000.0001) //     82 --------------------------------------------------------------------------------------------------------------------------------------------------------------------------------------------------------------------------------------------------------------------------------------------------------------------------------------------------------------------------------
(PID.TID 0000.0001) //     81 --------------------------------------------------------------------------------------------------------------------------------------------------------------------------------------------------------------------------------------------------------------------------------------------------------------------------------------------------------------------------------
(PID.TID 0000.0001) //     80 --------------------------------------------------------------------------------------------------------------------------------------------------------------------------------------------------------------------------------------------------------------------------------------------------------------------------------------------------------------------------------
(PID.TID 0000.0001) //     79 --------------------------------------------------------------------------------------------------------------------------------------------------------------------------------------------------------------------------------------------------------------------------------------------------------------------------------------------------------------------------------
(PID.TID 0000.0001) //     78 --------------------------------------------------------------------------------------------------------------------------------------------------------------------------------------------------------------------------------------------------------------------------------------------------------------------------------------------------------------------------------
(PID.TID 0000.0001) //     77 --------------------------------------------------------------------------------------------------------------------------------------------------------------------------------------------------------------------------------------------------------------------------------------------------------------------------------------------------------------------------------
(PID.TID 0000.0001) //     76 --------------------------------------------------------------------------------------------------------------------------------------------------------------------------------------------------------------------------------------------------------------------------------------------------------------------------------------------------------------------------------
(PID.TID 0000.0001) //     75 --------------------------------------------------------------------------------------------------------------------------------------------------------------------------------------------------------------------------------------------------------------------------------------------------------------------------------------------------------------------------------
(PID.TID 0000.0001) //     74 --------------------------------------------------------------------------------------------------------------------------------------------------------------------------------------------------------------------------------------------------------------------------------------------------------------------------------------------------------------------------------
(PID.TID 0000.0001) //     73 --------------------------------------------------------------------------------------------------------------------------------------------------------------------------------------------------------------------------------------------------------------------------------------------------------------------------------------------------------------------------------
(PID.TID 0000.0001) //     72 --------------------------------------------------------------------------------------------------------------------------------------------------------------------------------------------------------------------------------------------------------------------------------------------------------------------------------------------------------------------------------
(PID.TID 0000.0001) //     71 --------------------------------------------------------------------------------------------------------------------------------------------------------------------------------------------------------------------------------------------------------------------------------------------------------------------------------------------------------------------------------
(PID.TID 0000.0001) //     70 --------------------------------------------------------------------------------------------------------------------------------------------------------------------------------------------------------------------------------------------------------------------------------------------------------------------------------------------------------------------------------
(PID.TID 0000.0001) //     69 --------------------------------------------------------------------------------------------------------------------------------------------------------------------------------------------------------------------------------------------------------------------------------------------------------------------------------------------------------------------------------
(PID.TID 0000.0001) //     68 --------------------------------------------------------------------------------------------------------------------------------------------------------------------------------------------------------------------------------------------------------------------------------------------------------------------------------------------------------------------------------
(PID.TID 0000.0001) //     67 --------------------------------------------------------------------------------------------------------------------------------------------------------------------------------------------------------------------------------------------------------------------------------------------------------------------------------------------------------------------------------
(PID.TID 0000.0001) //     66 --------------------------------------------------------------------------------------------------------------------------------------------------------------------------------------------------------------------------------------------------------------------------------------------------------------------------------------------------------------------------------
(PID.TID 0000.0001) //     65 --------------------------------------------------------------------------------------------------------------------------------------------------------------------------------------------------------------------------------------------------------------------------------------------------------------------------------------------------------------------------------
(PID.TID 0000.0001) //     64 --------------------------------------------------------------------------------------------------------------------------------------------------------------------------------------------------------------------------------------------------------------------------------------------------------------------------------------------------------------------------------
(PID.TID 0000.0001) //     63 --------------------------------------------------------------------------------------------------------------------------------------------------------------------------------------------------------------------------------------------------------------------------------------------------------------------------------------------------------------------------------
(PID.TID 0000.0001) //     62 --------------------------------------------------------------------------------------------------------------------------------------------------------------------------------------------------------------------------------------------------------------------------------------------------------------------------------------------------------------------------------
(PID.TID 0000.0001) //     61 --------------------------------------------------------------------------------------------------------------------------------------------------------------------------------------------------------------------------------------------------------------------------------------------------------------------------------------------------------------------------------
(PID.TID 0000.0001) //     60 --------------------------------------------------------------------------------------------------------------------------------------------------------------------------------------------------------------------------------------------------------------------------------------------------------------------------------------------------------------------------------
(PID.TID 0000.0001) //     59 --------------------------------------------------------------------------------------------------------------------------------------------------------------------------------------------------------------------------------------------------------------------------------------------------------------------------------------------------------------------------------
(PID.TID 0000.0001) //     58 --------------------------------------------------------------------------------------------------------------------------------------------------------------------------------------------------------------------------------------------------------------------------------------------------------------------------------------------------------------------------------
(PID.TID 0000.0001) //     63 --------------------------------------------------------------------------------------------------------------------------------------------------------------------------------------------------------------------------------------------------------------------------------------------------------------------------------------------------------------------------------
(PID.TID 0000.0001) //     62 --------------------------------------------------------------------------------------------------------------------------------------------------------------------------------------------------------------------------------------------------------------------------------------------------------------------------------------------------------------------------------
(PID.TID 0000.0001) //     61 --------------------------------------------------------------------------------------------------------------------------------------------------------------------------------------------------------------------------------------------------------------------------------------------------------------------------------------------------------------------------------
(PID.TID 0000.0001) //     60 --------------------------------------------------------------------------------------------------------------------------------------------------------------------------------------------------------------------------------------------------------------------------------------------------------------------------------------------------------------------------------
(PID.TID 0000.0001) //     59 --------------------------------------------------------------------------------------------------------------------------------------------------------------------------------------------------------------------------------------------------------------------------------------------------------------------------------------------------------------------------------
(PID.TID 0000.0001) //     58 --------------------------------------------------------------------------------------------------------------------------------------------------------------------------------------------------------------------------------------------------------------------------------------------------------------------------------------------------------------------------------
(PID.TID 0000.0001) //     57 --------------------------------------------------------------------------------------------------------------------------------------------------------------------------------------------------------------------------------------------------------------------------------------------------------------------------------------------------------------------------------
(PID.TID 0000.0001) //     56 --------------------------------------------------------------------------------------------------------------------------------------------------------------------------------------------------------------------------------------------------------------------------------------------------------------------------------------------------------------------------------
(PID.TID 0000.0001) //     55 --------------------------------------------------------------------------------------------------------------------------------------------------------------------------------------------------------------------------------------------------------------------------------------------------------------------------------------------------------------------------------
(PID.TID 0000.0001) //     54 --------------------------------------------------------------------------------------------------------------------------------------------------------------------------------------------------------------------------------------------------------------------------------------------------------------------------------------------------------------------------------
(PID.TID 0000.0001) //     53 --------------------------------------------------------------------------------------------------------------------------------------------------------------------------------------------------------------------------------------------------------------------------------------------------------------------------------------------------------------------------------
(PID.TID 0000.0001) //     52 --------------------------------------------------------------------------------------------------------------------------------------------------------------------------------------------------------------------------------------------------------------------------------------------------------------------------------------------------------------------------------
(PID.TID 0000.0001) //     51 --------------------------------------------------------------------------------------------------------------------------------------------------------------------------------------------------------------------------------------------------------------------------------------------------------------------------------------------------------------------------------
(PID.TID 0000.0001) //     50 --------------------------------------------------------------------------------------------------------------------------------------------------------------------------------------------------------------------------------------------------------------------------------------------------------------------------------------------------------------------------------
(PID.TID 0000.0001) //     49 --------------------------------------------------------------------------------------------------------------------------------------------------------------------------------------------------------------------------------------------------------------------------------------------------------------------------------------------------------------------------------
(PID.TID 0000.0001) //     48 --------------------------------------------------------------------------------------------------------------------------------------------------------------------------------------------------------------------------------------------------------------------------------------------------------------------------------------------------------------------------------
(PID.TID 0000.0001) //     47 --------------------------------------------------------------------------------------------------------------------------------------------------------------------------------------------------------------------------------------------------------------------------------------------------------------------------------------------------------------------------------
(PID.TID 0000.0001) //     46 --------------------------------------------------------------------------------------------------------------------------------------------------------------------------------------------------------------------------------------------------------------------------------------------------------------------------------------------------------------------------------
(PID.TID 0000.0001) //     45 --------------------------------------------------------------------------------------------------------------------------------------------------------------------------------------------------------------------------------------------------------------------------------------------------------------------------------------------------------------------------------
(PID.TID 0000.0001) //     44 --------------------------------------------------------------------------------------------------------------------------------------------------------------------------------------------------------------------------------------------------------------------------------------------------------------------------------------------------------------------------------
(PID.TID 0000.0001) //     43 --------------------------------------------------------------------------------------------------------------------------------------------------------------------------------------------------------------------------------------------------------------------------------------------------------------------------------------------------------------------------------
(PID.TID 0000.0001) //     42 --------------------------------------------------------------------------------------------------------------------------------------------------------------------------------------------------------------------------------------------------------------------------------------------------------------------------------------------------------------------------------
(PID.TID 0000.0001) //     41 --------------------------------------------------------------------------------------------------------------------------------------------------------------------------------------------------------------------------------------------------------------------------------------------------------------------------------------------------------------------------------
(PID.TID 0000.0001) //     40 --------------------------------------------------------------------------------------------------------------------------------------------------------------------------------------------------------------------------------------------------------------------------------------------------------------------------------------------------------------------------------
(PID.TID 0000.0001) //     39 --------------------------------------------------------------------------------------------------------------------------------------------------------------------------------------------------------------------------------------------------------------------------------------------------------------------------------------------------------------------------------
(PID.TID 0000.0001) //     38 --------------------------------------------------------------------------------------------------------------------------------------------------------------------------------------------------------------------------------------------------------------------------------------------------------------------------------------------------------------------------------
(PID.TID 0000.0001) //     43 --------------------------------------------------------------------------------------------------------------------------------------------------------------------------------------------------------------------------------------------------------------------------------------------------------------------------------------------------------------------------------
(PID.TID 0000.0001) //     42 --------------------------------------------------------------------------------------------------------------------------------------------------------------------------------------------------------------------------------------------------------------------------------------------------------------------------------------------------------------------------------
(PID.TID 0000.0001) //     41 --------------------------------------------------------------------------------------------------------------------------------------------------------------------------------------------------------------------------------------------------------------------------------------------------------------------------------------------------------------------------------
(PID.TID 0000.0001) //     40 --------------------------------------------------------------------------------------------------------------------------------------------------------------------------------------------------------------------------------------------------------------------------------------------------------------------------------------------------------------------------------
(PID.TID 0000.0001) //     39 --------------------------------------------------------------------------------------------------------------------------------------------------------------------------------------------------------------------------------------------------------------------------------------------------------------------------------------------------------------------------------
(PID.TID 0000.0001) //     38 --------------------------------------------------------------------------------------------------------------------------------------------------------------------------------------------------------------------------------------------------------------------------------------------------------------------------------------------------------------------------------
(PID.TID 0000.0001) //     37 --------------------------------------------------------------------------------------------------------------------------------------------------------------------------------------------------------------------------------------------------------------------------------------------------------------------------------------------------------------------------------
(PID.TID 0000.0001) //     36 --------------------------------------------------------------------------------------------------------------------------------------------------------------------------------------------------------------------------------------------------------------------------------------------------------------------------------------------------------------------------------
(PID.TID 0000.0001) //     35 --------------------------------------------------------------------------------------------------------------------------------------------------------------------------------------------------------------------------------------------------------------------------------------------------------------------------------------------------------------------------------
(PID.TID 0000.0001) //     34 --------------------------------------------------------------------------------------------------------------------------------------------------------------------------------------------------------------------------------------------------------------------------------------------------------------------------------------------------------------------------------
(PID.TID 0000.0001) //     33 --------------------------------------------------------------------------------------------------------------------------------------------------------------------------------------------------------------------------------------------------------------------------------------------------------------------------------------------------------------------------------
(PID.TID 0000.0001) //     32 --------------------------------------------------------------------------------------------------------------------------------------------------------------------------------------------------------------------------------------------------------------------------------------------------------------------------------------------------------------------------------
(PID.TID 0000.0001) //     31 --------------------------------------------------------------------------------------------------------------------------------------------------------------------------------------------------------------------------------------------------------------------------------------------------------------------------------------------------------------------------------
(PID.TID 0000.0001) //     30 --------------------------------------------------------------------------------------------------------------------------------------------------------------------------------------------------------------------------------------------------------------------------------------------------------------------------------------------------------------------------------
(PID.TID 0000.0001) //     29 --------------------------------------------------------------------------------------------------------------------------------------------------------------------------------------------------------------------------------------------------------------------------------------------------------------------------------------------------------------------------------
(PID.TID 0000.0001) //     28 --------------------------------------------------------------------------------------------------------------------------------------------------------------------------------------------------------------------------------------------------------------------------------------------------------------------------------------------------------------------------------
(PID.TID 0000.0001) //     27 --------------------------------------------------------------------------------------------------------------------------------------------------------------------------------------------------------------------------------------------------------------------------------------------------------------------------------------------------------------------------------
(PID.TID 0000.0001) //     26 --------------------------------------------------------------------------------------------------------------------------------------------------------------------------------------------------------------------------------------------------------------------------------------------------------------------------------------------------------------------------------
(PID.TID 0000.0001) //     25 --------------------------------------------------------------------------------------------------------------------------------------------------------------------------------------------------------------------------------------------------------------------------------------------------------------------------------------------------------------------------------
(PID.TID 0000.0001) //     24 --------------------------------------------------------------------------------------------------------------------------------------------------------------------------------------------------------------------------------------------------------------------------------------------------------------------------------------------------------------------------------
(PID.TID 0000.0001) //     23 --------------------------------------------------------------------------------------------------------------------------------------------------------------------------------------------------------------------------------------------------------------------------------------------------------------------------------------------------------------------------------
(PID.TID 0000.0001) //     22 --------------------------------------------------------------------------------------------------------------------------------------------------------------------------------------------------------------------------------------------------------------------------------------------------------------------------------------------------------------------------------
(PID.TID 0000.0001) //     21 --------------------------------------------------------------------------------------------------------------------------------------------------------------------------------------------------------------------------------------------------------------------------------------------------------------------------------------------------------------------------------
(PID.TID 0000.0001) //     20 --------------------------------------------------------------------------------------------------------------------------------------------------------------------------------------------------------------------------------------------------------------------------------------------------------------------------------------------------------------------------------
(PID.TID 0000.0001) //     19 --------------------------------------------------------------------------------------------------------------------------------------------------------------------------------------------------------------------------------------------------------------------------------------------------------------------------------------------------------------------------------
(PID.TID 0000.0001) //     18 --------------------------------------------------------------------------------------------------------------------------------------------------------------------------------------------------------------------------------------------------------------------------------------------------------------------------------------------------------------------------------
(PID.TID 0000.0001) //     23 --------------------------------------------------------------------------------------------------------------------------------------------------------------------------------------------------------------------------------------------------------------------------------------------------------------------------------------------------------------------------------
(PID.TID 0000.0001) //     22 --------------------------------------------------------------------------------------------------------------------------------------------------------------------------------------------------------------------------------------------------------------------------------------------------------------------------------------------------------------------------------
(PID.TID 0000.0001) //     21 --------------------------------------------------------------------------------------------------------------------------------------------------------------------------------------------------------------------------------------------------------------------------------------------------------------------------------------------------------------------------------
(PID.TID 0000.0001) //     20 --------------------------------------------------------------------------------------------------------------------------------------------------------------------------------------------------------------------------------------------------------------------------------------------------------------------------------------------------------------------------------
(PID.TID 0000.0001) //     19 --------------------------------------------------------------------------------------------------------------------------------------------------------------------------------------------------------------------------------------------------------------------------------------------------------------------------------------------------------------------------------
(PID.TID 0000.0001) //     18 --------------------------------------------------------------------------------------------------------------------------------------------------------------------------------------------------------------------------------------------------------------------------------------------------------------------------------------------------------------------------------
(PID.TID 0000.0001) //     17 --------------------------------------------------------------------------------------------------------------------------------------------------------------------------------------------------------------------------------------------------------------------------------------------------------------------------------------------------------------------------------
(PID.TID 0000.0001) //     16 --------------------------------------------------------------------------------------------------------------------------------------------------------------------------------------------------------------------------------------------------------------------------------------------------------------------------------------------------------------------------------
(PID.TID 0000.0001) //     15 --------------------------------------------------------------------------------------------------------------------------------------------------------------------------------------------------------------------------------------------------------------------------------------------------------------------------------------------------------------------------------
(PID.TID 0000.0001) //     14 --------------------------------------------------------------------------------------------------------------------------------------------------------------------------------------------------------------------------------------------------------------------------------------------------------------------------------------------------------------------------------
(PID.TID 0000.0001) //     13 --------------------------------------------------------------------------------------------------------------------------------------------------------------------------------------------------------------------------------------------------------------------------------------------------------------------------------------------------------------------------------
(PID.TID 0000.0001) //     12 --------------------------------------------------------------------------------------------------------------------------------------------------------------------------------------------------------------------------------------------------------------------------------------------------------------------------------------------------------------------------------
(PID.TID 0000.0001) //     11 --------------------------------------------------------------------------------------------------------------------------------------------------------------------------------------------------------------------------------------------------------------------------------------------------------------------------------------------------------------------------------
(PID.TID 0000.0001) //     10 --------------------------------------------------------------------------------------------------------------------------------------------------------------------------------------------------------------------------------------------------------------------------------------------------------------------------------------------------------------------------------
(PID.TID 0000.0001) //      9 --------------------------------------------------------------------------------------------------------------------------------------------------------------------------------------------------------------------------------------------------------------------------------------------------------------------------------------------------------------------------------
(PID.TID 0000.0001) //      8 --------------------------------------------------------------------------------------------------------------------------------------------------------------------------------------------------------------------------------------------------------------------------------------------------------------------------------------------------------------------------------
(PID.TID 0000.0001) //      7 --------------------------------------------------------------------------------------------------------------------------------------------------------------------------------------------------------------------------------------------------------------------------------------------------------------------------------------------------------------------------------
(PID.TID 0000.0001) //      6 --------------------------------------------------------------------------------------------------------------------------------------------------------------------------------------------------------------------------------------------------------------------------------------------------------------------------------------------------------------------------------
(PID.TID 0000.0001) //      5 --------------------------------------------------------------------------------------------------------------------------------------------------------------------------------------------------------------------------------------------------------------------------------------------------------------------------------------------------------------------------------
(PID.TID 0000.0001) //      4 --------------------------------------------------------------------------------------------------------------------------------------------------------------------------------------------------------------------------------------------------------------------------------------------------------------------------------------------------------------------------------
(PID.TID 0000.0001) //      3 --------------------------------------------------------------------------------------------------------------------------------------------------------------------------------------------------------------------------------------------------------------------------------------------------------------------------------------------------------------------------------
(PID.TID 0000.0001) //      2 --------------------------------------------------------------------------------------------------------------------------------------------------------------------------------------------------------------------------------------------------------------------------------------------------------------------------------------------------------------------------------
(PID.TID 0000.0001) //      1 --------------------------------------------------------------------------------------------------------------------------------------------------------------------------------------------------------------------------------------------------------------------------------------------------------------------------------------------------------------------------------
(PID.TID 0000.0001) //      0 ................................................................................................................................................................................................................................................................................................................................................................................
(PID.TID 0000.0001) //     -1 ................................................................................................................................................................................................................................................................................................................................................................................
(PID.TID 0000.0001) //     -2 ................................................................................................................................................................................................................................................................................................................................................................................
(PID.TID 0000.0001) // =======================================================
(PID.TID 0000.0001) // END OF FIELD                                          =
(PID.TID 0000.0001) // =======================================================
(PID.TID 0000.0001) 
(PID.TID 0000.0001) // =======================================================
(PID.TID 0000.0001) // Field Model Ro_surf (ini_masks_etc)
(PID.TID 0000.0001) // CMIN =          1.000000000000000E+32
(PID.TID 0000.0001) // CMAX =         -1.000000000000000E+32
(PID.TID 0000.0001) // CINT =          0.000000000000000E+00
(PID.TID 0000.0001) // SYMBOLS (CMIN->CMAX): -abcdefghijklmnopqrstuvwxyz+
(PID.TID 0000.0001) //                  0.0: .
(PID.TID 0000.0001) // RANGE I (Lo:Hi:Step):(    -2:   275:     1)
(PID.TID 0000.0001) // RANGE J (Lo:Hi:Step):(   323:    -2:    -1)
(PID.TID 0000.0001) // RANGE K (Lo:Hi:Step):(   1:   1:   1)
(PID.TID 0000.0001) // =======================================================
(PID.TID 0000.0001) // =======================================================
(PID.TID 0000.0001) // END OF FIELD                                          =
(PID.TID 0000.0001) // =======================================================
(PID.TID 0000.0001) 
(PID.TID 0000.0001) // =======================================================
(PID.TID 0000.0001) // Field hFacC at iteration          0
(PID.TID 0000.0001) // CMIN =          1.000000000000000E+00
(PID.TID 0000.0001) // CMAX =          1.000000000000000E+00
(PID.TID 0000.0001) // CINT =          0.000000000000000E+00
(PID.TID 0000.0001) // SYMBOLS (CMIN->CMAX): -abcdefghijklmnopqrstuvwxyz+
(PID.TID 0000.0001) //                  0.0: .
(PID.TID 0000.0001) // RANGE I (Lo:Hi:Step):(    -2:   275:     1)
(PID.TID 0000.0001) // RANGE J (Lo:Hi:Step):(   323:    -2:    -1)
(PID.TID 0000.0001) // RANGE K (Lo:Hi:Step):(   1:   1:   1)
(PID.TID 0000.0001) // =======================================================
(PID.TID 0000.0001) // =======================================================
(PID.TID 0000.0001) // END OF FIELD                                          =
(PID.TID 0000.0001) // =======================================================
(PID.TID 0000.0001) 
(PID.TID 0000.0001) // =======================================================
(PID.TID 0000.0001) // Field hFacW at iteration          0
(PID.TID 0000.0001) // CMIN =          1.000000000000000E+00
(PID.TID 0000.0001) // CMAX =          1.000000000000000E+00
(PID.TID 0000.0001) // CINT =          0.000000000000000E+00
(PID.TID 0000.0001) // SYMBOLS (CMIN->CMAX): -abcdefghijklmnopqrstuvwxyz+
(PID.TID 0000.0001) //                  0.0: .
(PID.TID 0000.0001) // RANGE I (Lo:Hi:Step):(    -2:   275:     1)
(PID.TID 0000.0001) // RANGE J (Lo:Hi:Step):(   323:    -2:    -1)
(PID.TID 0000.0001) // RANGE K (Lo:Hi:Step):(   1:   1:   1)
(PID.TID 0000.0001) // =======================================================
(PID.TID 0000.0001) // =======================================================
(PID.TID 0000.0001) // END OF FIELD                                          =
(PID.TID 0000.0001) // =======================================================
(PID.TID 0000.0001) 
(PID.TID 0000.0001) // =======================================================
(PID.TID 0000.0001) // Field hFacS at iteration          0
(PID.TID 0000.0001) // CMIN =          1.000000000000000E+00
(PID.TID 0000.0001) // CMAX =          1.000000000000000E+00
(PID.TID 0000.0001) // CINT =          0.000000000000000E+00
(PID.TID 0000.0001) // SYMBOLS (CMIN->CMAX): -abcdefghijklmnopqrstuvwxyz+
(PID.TID 0000.0001) //                  0.0: .
(PID.TID 0000.0001) // RANGE I (Lo:Hi:Step):(    -2:   275:     1)
(PID.TID 0000.0001) // RANGE J (Lo:Hi:Step):(   323:    -2:    -1)
(PID.TID 0000.0001) // RANGE K (Lo:Hi:Step):(   1:   1:   1)
(PID.TID 0000.0001) // =======================================================
(PID.TID 0000.0001) // =======================================================
(PID.TID 0000.0001) // END OF FIELD                                          =
(PID.TID 0000.0001) // =======================================================
(PID.TID 0000.0001) 
(PID.TID 0000.0001) GAD_INIT_FIXED: GAD_OlMinSize=  1  0  1
(PID.TID 0000.0001) 
(PID.TID 0000.0001) // ===================================
(PID.TID 0000.0001) // GAD parameters :
(PID.TID 0000.0001) // ===================================
(PID.TID 0000.0001) tempAdvScheme =   /* Temp. Horiz.Advection scheme selector */
(PID.TID 0000.0001)                       2
(PID.TID 0000.0001)     ;
(PID.TID 0000.0001) tempVertAdvScheme =   /* Temp. Vert. Advection scheme selector */
(PID.TID 0000.0001)                       2
(PID.TID 0000.0001)     ;
(PID.TID 0000.0001) tempMultiDimAdvec =   /* use Muti-Dim Advec method for Temp */
(PID.TID 0000.0001)                   F
(PID.TID 0000.0001)     ;
(PID.TID 0000.0001) tempSOM_Advection = /* use 2nd Order Moment Advection for Temp */
(PID.TID 0000.0001)                   F
(PID.TID 0000.0001)     ;
(PID.TID 0000.0001) AdamsBashforthGt = /* apply Adams-Bashforth extrapolation on Gt */
(PID.TID 0000.0001)                   T
(PID.TID 0000.0001)     ;
(PID.TID 0000.0001) AdamsBashforth_T = /* apply Adams-Bashforth extrapolation on Temp */
(PID.TID 0000.0001)                   F
(PID.TID 0000.0001)     ;
(PID.TID 0000.0001) saltAdvScheme =   /* Salt. Horiz.advection scheme selector */
(PID.TID 0000.0001)                       2
(PID.TID 0000.0001)     ;
(PID.TID 0000.0001) saltVertAdvScheme =   /* Salt. Vert. Advection scheme selector */
(PID.TID 0000.0001)                       2
(PID.TID 0000.0001)     ;
(PID.TID 0000.0001) saltMultiDimAdvec =   /* use Muti-Dim Advec method for Salt */
(PID.TID 0000.0001)                   F
(PID.TID 0000.0001)     ;
(PID.TID 0000.0001) saltSOM_Advection = /* use 2nd Order Moment Advection for Salt */
(PID.TID 0000.0001)                   F
(PID.TID 0000.0001)     ;
(PID.TID 0000.0001) AdamsBashforthGs = /* apply Adams-Bashforth extrapolation on Gs */
(PID.TID 0000.0001)                   T
(PID.TID 0000.0001)     ;
(PID.TID 0000.0001) AdamsBashforth_S = /* apply Adams-Bashforth extrapolation on Salt */
(PID.TID 0000.0001)                   F
(PID.TID 0000.0001)     ;
(PID.TID 0000.0001) // ===================================
(PID.TID 0000.0001) Empty tile bi,bj=     1    14
(PID.TID 0000.0001) Empty tile bi,bj=     2    14
(PID.TID 0000.0001) Empty tile bi,bj=     3    14
(PID.TID 0000.0001) Empty tile bi,bj=     4    14
(PID.TID 0000.0001) Empty tile bi,bj=    13    14
(PID.TID 0000.0001) Empty tile bi,bj=    14    14
(PID.TID 0000.0001) Empty tile bi,bj=    15    14
(PID.TID 0000.0001) Empty tile bi,bj=    16    14
(PID.TID 0000.0001) Empty tile bi,bj=     1    15
(PID.TID 0000.0001) Empty tile bi,bj=     2    15
(PID.TID 0000.0001) Empty tile bi,bj=     3    15
(PID.TID 0000.0001) Empty tile bi,bj=     4    15
(PID.TID 0000.0001) Empty tile bi,bj=    13    15
(PID.TID 0000.0001) Empty tile bi,bj=    14    15
(PID.TID 0000.0001) Empty tile bi,bj=    15    15
(PID.TID 0000.0001) Empty tile bi,bj=    16    15
(PID.TID 0000.0001) Empty tile bi,bj=     1    16
(PID.TID 0000.0001) Empty tile bi,bj=     2    16
(PID.TID 0000.0001) Empty tile bi,bj=     3    16
(PID.TID 0000.0001) Empty tile bi,bj=     4    16
(PID.TID 0000.0001) Empty tile bi,bj=     5    16
(PID.TID 0000.0001) Empty tile bi,bj=     6    16
(PID.TID 0000.0001) Empty tile bi,bj=    11    16
(PID.TID 0000.0001) Empty tile bi,bj=    12    16
(PID.TID 0000.0001) Empty tile bi,bj=    13    16
(PID.TID 0000.0001) Empty tile bi,bj=    14    16
(PID.TID 0000.0001) Empty tile bi,bj=    15    16
(PID.TID 0000.0001) Empty tile bi,bj=    16    16
(PID.TID 0000.0001) 
(PID.TID 0000.0001) %MON fCori_max                    =   6.9980004700000E-04
(PID.TID 0000.0001) %MON fCori_min                    =   6.9339004700000E-04
(PID.TID 0000.0001) %MON fCori_mean                   =   6.9659504702188E-04
(PID.TID 0000.0001) %MON fCori_sd                     =   1.8561992099325E-06
(PID.TID 0000.0001) %MON fCoriG_max                   =   6.9979000000000E-04
(PID.TID 0000.0001) %MON fCoriG_min                   =   6.9338000000000E-04
(PID.TID 0000.0001) %MON fCoriG_mean                  =   6.9658500000000E-04
(PID.TID 0000.0001) %MON fCoriG_sd                    =   1.8561992100509E-06
(PID.TID 0000.0001) %MON fCoriCos_max                 =   0.0000000000000E+00
(PID.TID 0000.0001) %MON fCoriCos_min                 =   0.0000000000000E+00
(PID.TID 0000.0001) %MON fCoriCos_mean                =   0.0000000000000E+00
(PID.TID 0000.0001) %MON fCoriCos_sd                  =   0.0000000000000E+00
(PID.TID 0000.0001) INI_CG2D: CG2D normalisation factor =  3.0445454545454452E-05
(PID.TID 0000.0001) 
(PID.TID 0000.0001) // =======================================================
(PID.TID 0000.0001) // Model configuration
(PID.TID 0000.0001) // =======================================================
(PID.TID 0000.0001) //
(PID.TID 0000.0001) // "Physical" paramters ( PARM01 in namelist )
(PID.TID 0000.0001) //
(PID.TID 0000.0001) buoyancyRelation = /* Type of relation to get Buoyancy */
(PID.TID 0000.0001)               'OCEANIC'
(PID.TID 0000.0001)     ;
(PID.TID 0000.0001) fluidIsAir   =  /* fluid major constituent is Air */
(PID.TID 0000.0001)                   F
(PID.TID 0000.0001)     ;
(PID.TID 0000.0001) fluidIsWater =  /* fluid major constituent is Water */
(PID.TID 0000.0001)                   T
(PID.TID 0000.0001)     ;
(PID.TID 0000.0001) usingPCoords =  /* use p (or p*) vertical coordinate */
(PID.TID 0000.0001)                   F
(PID.TID 0000.0001)     ;
(PID.TID 0000.0001) usingZCoords =  /* use z (or z*) vertical coordinate */
(PID.TID 0000.0001)                   T
(PID.TID 0000.0001)     ;
(PID.TID 0000.0001) tRef =   /* Reference temperature profile ( oC or K ) */
(PID.TID 0000.0001)     2 @  1.660000000000000E+01,             /* K =  1:  2 */
(PID.TID 0000.0001)                 1.659000000000000E+01,      /* K =  3 */
(PID.TID 0000.0001)     5 @  1.650000000000000E+01,             /* K =  4:  8 */
(PID.TID 0000.0001)                 1.647000000000000E+01,      /* K =  9 */
(PID.TID 0000.0001)                 1.640000000000000E+01,      /* K = 10 */
(PID.TID 0000.0001)                 1.631000000000000E+01,      /* K = 11 */
(PID.TID 0000.0001)                 1.606000000000000E+01,      /* K = 12 */
(PID.TID 0000.0001)                 1.579000000000000E+01,      /* K = 13 */
(PID.TID 0000.0001)                 1.534000000000000E+01,      /* K = 14 */
(PID.TID 0000.0001)                 1.463000000000000E+01,      /* K = 15 */
(PID.TID 0000.0001)                 1.373000000000000E+01,      /* K = 16 */
(PID.TID 0000.0001)                 1.254000000000000E+01,      /* K = 17 */
(PID.TID 0000.0001)                 1.137000000000000E+01,      /* K = 18 */
(PID.TID 0000.0001)                 1.046000000000000E+01,      /* K = 19 */
(PID.TID 0000.0001)                 9.539999999999999E+00,      /* K = 20 */
(PID.TID 0000.0001)                 8.900000000000000E+00,      /* K = 21 */
(PID.TID 0000.0001)                 8.330000000000000E+00,      /* K = 22 */
(PID.TID 0000.0001)                 7.690000000000000E+00,      /* K = 23 */
(PID.TID 0000.0001)                 7.070000000000000E+00,      /* K = 24 */
(PID.TID 0000.0001)                 6.550000000000000E+00,      /* K = 25 */
(PID.TID 0000.0001)                 6.110000000000000E+00,      /* K = 26 */
(PID.TID 0000.0001)                 5.680000000000000E+00,      /* K = 27 */
(PID.TID 0000.0001)                 5.240000000000000E+00,      /* K = 28 */
(PID.TID 0000.0001)                 4.710000000000000E+00,      /* K = 29 */
(PID.TID 0000.0001)                 4.270000000000000E+00       /* K = 30 */
(PID.TID 0000.0001)     ;
(PID.TID 0000.0001) sRef =   /* Reference salinity profile ( g/kg ) */
(PID.TID 0000.0001)    14 @  3.360000000000000E+01,             /* K =  1: 14 */
(PID.TID 0000.0001)     2 @  3.370000000000000E+01,             /* K = 15: 16 */
(PID.TID 0000.0001)     2 @  3.380000000000000E+01,             /* K = 17: 18 */
(PID.TID 0000.0001)                 3.389000000000000E+01,      /* K = 19 */
(PID.TID 0000.0001)                 3.393000000000000E+01,      /* K = 20 */
(PID.TID 0000.0001)                 3.400000000000000E+01,      /* K = 21 */
(PID.TID 0000.0001)                 3.412000000000000E+01,      /* K = 22 */
(PID.TID 0000.0001)     2 @  3.420000000000000E+01,             /* K = 23: 24 */
(PID.TID 0000.0001)                 3.425000000000000E+01,      /* K = 25 */
(PID.TID 0000.0001)                 3.430000000000000E+01,      /* K = 26 */
(PID.TID 0000.0001)                 3.434000000000000E+01,      /* K = 27 */
(PID.TID 0000.0001)     2 @  3.440000000000000E+01,             /* K = 28: 29 */
(PID.TID 0000.0001)                 3.448000000000000E+01       /* K = 30 */
(PID.TID 0000.0001)     ;
(PID.TID 0000.0001) rhoRef =   /* Density vertical profile from (Ref,sRef)( kg/m^3 ) */
(PID.TID 0000.0001)     2 @  9.998000000000000E+02,             /* K =  1:  2 */
(PID.TID 0000.0001)                 9.998019995999999E+02,      /* K =  3 */
(PID.TID 0000.0001)     5 @  9.998199959999999E+02,             /* K =  4:  8 */
(PID.TID 0000.0001)                 9.998259948000000E+02,      /* K =  9 */
(PID.TID 0000.0001)                 9.998399919999999E+02,      /* K = 10 */
(PID.TID 0000.0001)                 9.998579884000000E+02,      /* K = 11 */
(PID.TID 0000.0001)                 9.999079783999999E+02,      /* K = 12 */
(PID.TID 0000.0001)                 9.999619676000000E+02,      /* K = 13 */
(PID.TID 0000.0001)                 1.000051949600000E+03,      /* K = 14 */
(PID.TID 0000.0001)                 1.000267906400000E+03,      /* K = 15 */
(PID.TID 0000.0001)                 1.000447870400000E+03,      /* K = 16 */
(PID.TID 0000.0001)                 1.000759808000000E+03,      /* K = 17 */
(PID.TID 0000.0001)                 1.000993761200000E+03,      /* K = 18 */
(PID.TID 0000.0001)                 1.001242311480000E+03,      /* K = 19 */
(PID.TID 0000.0001)                 1.001455868760000E+03,      /* K = 20 */
(PID.TID 0000.0001)                 1.001635632800000E+03,      /* K = 21 */
(PID.TID 0000.0001)                 1.001838392240000E+03,      /* K = 22 */
(PID.TID 0000.0001)                 1.002025554800000E+03,      /* K = 23 */
(PID.TID 0000.0001)                 1.002149530000000E+03,      /* K = 24 */
(PID.TID 0000.0001)                 1.002290501800000E+03,      /* K = 25 */
(PID.TID 0000.0001)                 1.002415476800000E+03,      /* K = 26 */
(PID.TID 0000.0001)                 1.002531053680000E+03,      /* K = 27 */
(PID.TID 0000.0001)                 1.002663427200000E+03,      /* K = 28 */
(PID.TID 0000.0001)                 1.002769406000000E+03,      /* K = 29 */
(PID.TID 0000.0001)                 1.002916576560000E+03       /* K = 30 */
(PID.TID 0000.0001)     ;
(PID.TID 0000.0001) dBdrRef = /* Vertical grad. of reference buoyancy [(m/s/r)^2] */
(PID.TID 0000.0001)     2 @  0.000000000000000E+00,             /* K =  1:  2 */
(PID.TID 0000.0001)                 7.848000000001228E-06,      /* K =  3 */
(PID.TID 0000.0001)                 6.088965517241370E-05,      /* K =  4 */
(PID.TID 0000.0001)     4 @  0.000000000000000E+00,             /* K =  5:  8 */
(PID.TID 0000.0001)                 9.810000000000372E-06,      /* K =  9 */
(PID.TID 0000.0001)                 1.990434782608704E-05,      /* K = 10 */
(PID.TID 0000.0001)                 2.207249999999997E-05,      /* K = 11 */
(PID.TID 0000.0001)                 5.274193548387097E-05,      /* K = 12 */
(PID.TID 0000.0001)                 4.927813953488365E-05,      /* K = 13 */
(PID.TID 0000.0001)                 7.120161290322570E-05,      /* K = 14 */
(PID.TID 0000.0001)                 1.476627177700354E-04,      /* K = 15 */
(PID.TID 0000.0001)                 1.063734939759036E-04,      /* K = 16 */
(PID.TID 0000.0001)                 1.594124999999980E-04,      /* K = 17 */
(PID.TID 0000.0001)                 1.031703370786517E-04,      /* K = 18 */
(PID.TID 0000.0001)                 9.470935922330181E-05,      /* K = 19 */
(PID.TID 0000.0001)                 7.031597315436233E-05,      /* K = 20 */
(PID.TID 0000.0001)                 5.112573913043478E-05,      /* K = 21 */
(PID.TID 0000.0001)                 4.986135338345820E-05,      /* K = 22 */
(PID.TID 0000.0001)                 3.979267605633886E-05,      /* K = 23 */
(PID.TID 0000.0001)                 2.277977528089888E-05,      /* K = 24 */
(PID.TID 0000.0001)                 2.238203883495114E-05,      /* K = 25 */
(PID.TID 0000.0001)                 1.715034965034935E-05,      /* K = 26 */
(PID.TID 0000.0001)                 1.370436253776491E-05,      /* K = 27 */
(PID.TID 0000.0001)                 1.356495039164453E-05,      /* K = 28 */
(PID.TID 0000.0001)                 9.389255079006777E-06,      /* K = 29 */
(PID.TID 0000.0001)                 1.127269320843082E-05       /* K = 30 */
(PID.TID 0000.0001)     ;
(PID.TID 0000.0001) useStrainTensionVisc= /* Use StrainTension Form of Viscous Operator */
(PID.TID 0000.0001)                   F
(PID.TID 0000.0001)     ;
(PID.TID 0000.0001) useVariableVisc = /* Use variable horizontal viscosity */
(PID.TID 0000.0001)                   F
(PID.TID 0000.0001)     ;
(PID.TID 0000.0001) useHarmonicVisc = /* Use harmonic horizontal viscosity */
(PID.TID 0000.0001)                   T
(PID.TID 0000.0001)     ;
(PID.TID 0000.0001) useBiharmonicVisc= /* Use biharmonic horiz.  viscosity */
(PID.TID 0000.0001)                   F
(PID.TID 0000.0001)     ;
(PID.TID 0000.0001) useSmag3D = /* Use isotropic 3-D Smagorinsky viscosity */
(PID.TID 0000.0001)                   F
(PID.TID 0000.0001)     ;
(PID.TID 0000.0001) viscAh  =   /* Lateral harmonic viscosity ( m^2/s ) */
(PID.TID 0000.0001)                 1.000000000000000E+02
(PID.TID 0000.0001)     ;
(PID.TID 0000.0001) viscA4  =   /* Lateral biharmonic viscosity ( m^4/s ) */
(PID.TID 0000.0001)                 0.000000000000000E+00
(PID.TID 0000.0001)     ;
(PID.TID 0000.0001) no_slip_sides =  /* Viscous BCs: No-slip sides */
(PID.TID 0000.0001)                   F
(PID.TID 0000.0001)     ;
(PID.TID 0000.0001) sideDragFactor = /* side-drag scaling factor (non-dim) */
(PID.TID 0000.0001)                 2.000000000000000E+00
(PID.TID 0000.0001)     ;
(PID.TID 0000.0001) viscArNr = /* vertical profile of vertical viscosity ( m^2/s )*/
(PID.TID 0000.0001)    30 @  1.000000000000000E-05              /* K =  1: 30 */
(PID.TID 0000.0001)     ;
(PID.TID 0000.0001) no_slip_bottom =  /* Viscous BCs: No-slip bottom */
(PID.TID 0000.0001)                   F
(PID.TID 0000.0001)     ;
(PID.TID 0000.0001) bottomVisc_pCell = /* Partial-cell in bottom Visc. BC */
(PID.TID 0000.0001)                   F
(PID.TID 0000.0001)     ;
(PID.TID 0000.0001) bottomDragLinear = /* linear bottom-drag coefficient ( m/s ) */
(PID.TID 0000.0001)                 0.000000000000000E+00
(PID.TID 0000.0001)     ;
(PID.TID 0000.0001) bottomDragQuadratic = /* quadratic bottom-drag coefficient (-) */
(PID.TID 0000.0001)                 0.000000000000000E+00
(PID.TID 0000.0001)     ;
(PID.TID 0000.0001) selectBotDragQuadr = /* select quadratic bottom drag options */
(PID.TID 0000.0001)                      -1
(PID.TID 0000.0001)     ;
(PID.TID 0000.0001) diffKhT =   /* Laplacian diffusion of heat laterally ( m^2/s ) */
(PID.TID 0000.0001)                 1.000000000000000E+02
(PID.TID 0000.0001)     ;
(PID.TID 0000.0001) diffK4T =   /* Biharmonic diffusion of heat laterally ( m^4/s ) */
(PID.TID 0000.0001)                 0.000000000000000E+00
(PID.TID 0000.0001)     ;
(PID.TID 0000.0001) diffKhS =   /* Laplacian diffusion of salt laterally ( m^2/s ) */
(PID.TID 0000.0001)                 1.000000000000000E+02
(PID.TID 0000.0001)     ;
(PID.TID 0000.0001) diffK4S =   /* Biharmonic diffusion of salt laterally ( m^4/s ) */
(PID.TID 0000.0001)                 0.000000000000000E+00
(PID.TID 0000.0001)     ;
(PID.TID 0000.0001) diffKrNrT = /* vertical profile of vertical diffusion of Temp ( m^2/s )*/
(PID.TID 0000.0001)    30 @  1.000000000000000E-05              /* K =  1: 30 */
(PID.TID 0000.0001)     ;
(PID.TID 0000.0001) diffKrNrS = /* vertical profile of vertical diffusion of Salt ( m^2/s )*/
(PID.TID 0000.0001)    30 @  1.000000000000000E-05              /* K =  1: 30 */
(PID.TID 0000.0001)     ;
(PID.TID 0000.0001) diffKrBL79surf = /* Surface diffusion for Bryan and Lewis 79 ( m^2/s ) */
(PID.TID 0000.0001)                 0.000000000000000E+00
(PID.TID 0000.0001)     ;
(PID.TID 0000.0001) diffKrBL79deep = /* Deep diffusion for Bryan and Lewis 1979 ( m^2/s ) */
(PID.TID 0000.0001)                 0.000000000000000E+00
(PID.TID 0000.0001)     ;
(PID.TID 0000.0001) diffKrBL79scl = /* Depth scale for Bryan and Lewis 1979 ( m ) */
(PID.TID 0000.0001)                 2.000000000000000E+02
(PID.TID 0000.0001)     ;
(PID.TID 0000.0001) diffKrBL79Ho = /* Turning depth for Bryan and Lewis 1979 ( m ) */
(PID.TID 0000.0001)                -2.000000000000000E+03
(PID.TID 0000.0001)     ;
(PID.TID 0000.0001) ivdc_kappa = /* Implicit Vertical Diffusivity for Convection ( m^2/s) */
(PID.TID 0000.0001)                 1.000000000000000E+00
(PID.TID 0000.0001)     ;
(PID.TID 0000.0001) hMixCriteria=  /* Criteria for mixed-layer diagnostic */
(PID.TID 0000.0001)                -8.000000000000000E-01
(PID.TID 0000.0001)     ;
(PID.TID 0000.0001) dRhoSmall =  /* Parameter for mixed-layer diagnostic */
(PID.TID 0000.0001)                 1.000000000000000E-06
(PID.TID 0000.0001)     ;
(PID.TID 0000.0001) hMixSmooth=  /* Smoothing parameter for mixed-layer diagnostic */
(PID.TID 0000.0001)                 0.000000000000000E+00
(PID.TID 0000.0001)     ;
(PID.TID 0000.0001) eosType =  /* Type of Equation of State */
(PID.TID 0000.0001)               'LINEAR'
(PID.TID 0000.0001)     ;
(PID.TID 0000.0001) tAlpha = /* Linear EOS thermal expansion coefficient ( 1/oC ) */
(PID.TID 0000.0001)                 2.000000000000000E-04
(PID.TID 0000.0001)     ;
(PID.TID 0000.0001) sBeta  = /* Linear EOS haline contraction coefficient ( 1/(g/kg) ) */
(PID.TID 0000.0001)                 7.400000000000000E-04
(PID.TID 0000.0001)     ;
(PID.TID 0000.0001) rhoNil    = /* Reference density for Linear EOS ( kg/m^3 ) */
(PID.TID 0000.0001)                 9.998000000000000E+02
(PID.TID 0000.0001)     ;
(PID.TID 0000.0001) selectP_inEOS_Zc = /* select pressure to use in EOS (0,1,2,3) */
(PID.TID 0000.0001)                       0
(PID.TID 0000.0001)     0= -g*rhoConst*z ; 1= pRef (from tRef,sRef); 2= Hyd P ; 3= Hyd+NH P
(PID.TID 0000.0001)     ;
(PID.TID 0000.0001) surf_pRef = /* Surface reference pressure ( Pa ) */
(PID.TID 0000.0001)                 1.013250000000000E+05
(PID.TID 0000.0001)     ;
(PID.TID 0000.0001) HeatCapacity_Cp =  /* Specific heat capacity ( J/kg/K ) */
(PID.TID 0000.0001)                 3.994000000000000E+03
(PID.TID 0000.0001)     ;
(PID.TID 0000.0001) celsius2K = /* 0 degree Celsius converted to Kelvin ( K ) */
(PID.TID 0000.0001)                 2.731500000000000E+02
(PID.TID 0000.0001)     ;
(PID.TID 0000.0001) rhoConst  = /* Reference density (Boussinesq)  ( kg/m^3 ) */
(PID.TID 0000.0001)                 9.998000000000000E+02
(PID.TID 0000.0001)     ;
(PID.TID 0000.0001) rhoFacC = /* normalized Reference density @ cell-Center (-) */
(PID.TID 0000.0001)    30 @  1.000000000000000E+00              /* K =  1: 30 */
(PID.TID 0000.0001)     ;
(PID.TID 0000.0001) rhoFacF = /* normalized Reference density @ W-Interface (-) */
(PID.TID 0000.0001)    31 @  1.000000000000000E+00              /* K =  1: 31 */
(PID.TID 0000.0001)     ;
(PID.TID 0000.0001) rhoConstFresh = /* Fresh-water reference density ( kg/m^3 ) */
(PID.TID 0000.0001)                 9.998000000000000E+02
(PID.TID 0000.0001)     ;
(PID.TID 0000.0001) gravity =   /* Gravitational acceleration ( m/s^2 ) */
(PID.TID 0000.0001)                 9.810000000000000E+00
(PID.TID 0000.0001)     ;
(PID.TID 0000.0001) gBaro =   /* Barotropic gravity ( m/s^2 ) */
(PID.TID 0000.0001)                 9.810000000000000E+00
(PID.TID 0000.0001)     ;
(PID.TID 0000.0001) gravFacC = /* gravity factor (vs surf.) @ cell-Center (-) */
(PID.TID 0000.0001)    30 @  1.000000000000000E+00              /* K =  1: 30 */
(PID.TID 0000.0001)     ;
(PID.TID 0000.0001) gravFacF = /* gravity factor (vs surf.) @ W-Interface (-) */
(PID.TID 0000.0001)    31 @  1.000000000000000E+00              /* K =  1: 31 */
(PID.TID 0000.0001)     ;
(PID.TID 0000.0001) rotationPeriod =   /* Rotation Period ( s ) */
(PID.TID 0000.0001)                 8.616400000000000E+04
(PID.TID 0000.0001)     ;
(PID.TID 0000.0001) omega =   /* Angular velocity ( rad/s ) */
(PID.TID 0000.0001)                 7.292123516990375E-05
(PID.TID 0000.0001)     ;
(PID.TID 0000.0001) f0 =   /* Reference coriolis parameter ( 1/s ) */
(PID.TID 0000.0001)                 6.940000000000000E-04
(PID.TID 0000.0001)     ;
(PID.TID 0000.0001) beta =   /* Beta ( 1/(m.s) ) */
(PID.TID 0000.0001)                 9.999999999999999E-12
(PID.TID 0000.0001)     ;
(PID.TID 0000.0001) fPrime =   /* Second coriolis parameter ( 1/s ) */
(PID.TID 0000.0001)                 0.000000000000000E+00
(PID.TID 0000.0001)     ;
(PID.TID 0000.0001) rigidLid =   /* Rigid lid on/off flag */
(PID.TID 0000.0001)                   F
(PID.TID 0000.0001)     ;
(PID.TID 0000.0001) implicitFreeSurface =   /* Implicit free surface on/off flag */
(PID.TID 0000.0001)                   T
(PID.TID 0000.0001)     ;
(PID.TID 0000.0001) freeSurfFac =   /* Implicit free surface factor */
(PID.TID 0000.0001)                 1.000000000000000E+00
(PID.TID 0000.0001)     ;
(PID.TID 0000.0001) implicSurfPress =  /* Surface Pressure implicit factor (0-1) */
(PID.TID 0000.0001)                 1.000000000000000E+00
(PID.TID 0000.0001)     ;
(PID.TID 0000.0001) implicDiv2DFlow =  /* Barot. Flow Div. implicit factor (0-1) */
(PID.TID 0000.0001)                 1.000000000000000E+00
(PID.TID 0000.0001)     ;
(PID.TID 0000.0001) uniformLin_PhiSurf = /* use uniform Bo_surf on/off flag */
(PID.TID 0000.0001)                   T
(PID.TID 0000.0001)     ;
(PID.TID 0000.0001) uniformFreeSurfLev = /* free-surface level-index is uniform */
(PID.TID 0000.0001)                   T
(PID.TID 0000.0001)     ;
(PID.TID 0000.0001) sIceLoadFac =  /* scale factor for sIceLoad (0-1) */
(PID.TID 0000.0001)                 1.000000000000000E+00
(PID.TID 0000.0001)     ;
(PID.TID 0000.0001) hFacMin =   /* minimum partial cell factor (hFac) */
(PID.TID 0000.0001)                 1.000000000000000E+00
(PID.TID 0000.0001)     ;
(PID.TID 0000.0001) hFacMinDr = /* minimum partial cell thickness ( m) */
(PID.TID 0000.0001)                 0.000000000000000E+00
(PID.TID 0000.0001)     ;
(PID.TID 0000.0001) exactConserv =  /* Exact Volume Conservation on/off flag */
(PID.TID 0000.0001)                   T
(PID.TID 0000.0001)     ;
(PID.TID 0000.0001) linFSConserveTr = /* Tracer correction for Lin Free Surface on/off flag */
(PID.TID 0000.0001)                   F
(PID.TID 0000.0001)     ;
(PID.TID 0000.0001) nonlinFreeSurf = /* Non-linear Free Surf. options (-1,0,1,2,3)*/
(PID.TID 0000.0001)                       0
(PID.TID 0000.0001)      -1,0= Off ; 1,2,3= On, 2=+rescale gU,gV, 3=+update cg2d solv.
(PID.TID 0000.0001)     ;
(PID.TID 0000.0001) hFacInf =   /* lower threshold for hFac (nonlinFreeSurf only)*/
(PID.TID 0000.0001)                 2.000000000000000E-01
(PID.TID 0000.0001)     ;
(PID.TID 0000.0001) hFacSup =   /* upper threshold for hFac (nonlinFreeSurf only)*/
(PID.TID 0000.0001)                 2.000000000000000E+00
(PID.TID 0000.0001)     ;
(PID.TID 0000.0001) select_rStar = /* r* Vertical coord. options (=0 r coord.; >0 uses r*)*/
(PID.TID 0000.0001)                       0
(PID.TID 0000.0001)     ;
(PID.TID 0000.0001) useRealFreshWaterFlux = /* Real Fresh Water Flux on/off flag*/
(PID.TID 0000.0001)                   F
(PID.TID 0000.0001)     ;
(PID.TID 0000.0001) temp_EvPrRn = /* Temp. of Evap/Prec/R (UNSET=use local T)(oC)*/
(PID.TID 0000.0001)                 1.234567000000000E+05
(PID.TID 0000.0001)     ;
(PID.TID 0000.0001) salt_EvPrRn = /* Salin. of Evap/Prec/R (UNSET=use local S)(g/kg)*/
(PID.TID 0000.0001)                 0.000000000000000E+00
(PID.TID 0000.0001)     ;
(PID.TID 0000.0001) selectAddFluid = /* option for mass source/sink of fluid (=0: off) */
(PID.TID 0000.0001)                       0
(PID.TID 0000.0001)     ;
(PID.TID 0000.0001) temp_addMass = /* Temp. of addMass array (UNSET=use local T)(oC)*/
(PID.TID 0000.0001)                 1.234567000000000E+05
(PID.TID 0000.0001)     ;
(PID.TID 0000.0001) salt_addMass = /* Salin. of addMass array (UNSET=use local S)(g/kg)*/
(PID.TID 0000.0001)                 0.000000000000000E+00
(PID.TID 0000.0001)     ;
(PID.TID 0000.0001) convertFW2Salt = /* convert F.W. Flux to Salt Flux (-1=use local S)(g/kg)*/
(PID.TID 0000.0001)                 3.500000000000000E+01
(PID.TID 0000.0001)     ;
(PID.TID 0000.0001) use3Dsolver = /* use 3-D pressure solver on/off flag */
(PID.TID 0000.0001)                   F
(PID.TID 0000.0001)     ;
(PID.TID 0000.0001) nonHydrostatic =  /* Non-Hydrostatic on/off flag */
(PID.TID 0000.0001)                   F
(PID.TID 0000.0001)     ;
(PID.TID 0000.0001) nh_Am2 = /* Non-Hydrostatic terms scaling factor */
(PID.TID 0000.0001)                 1.000000000000000E+00
(PID.TID 0000.0001)     ;
(PID.TID 0000.0001) implicitNHPress = /* Non-Hyd Pressure implicit factor (0-1)*/
(PID.TID 0000.0001)                 1.000000000000000E+00
(PID.TID 0000.0001)     ;
(PID.TID 0000.0001) selectNHfreeSurf = /* Non-Hyd (free-)Surface option */
(PID.TID 0000.0001)                       0
(PID.TID 0000.0001)     ;
(PID.TID 0000.0001) quasiHydrostatic = /* Quasi-Hydrostatic on/off flag */
(PID.TID 0000.0001)                   F
(PID.TID 0000.0001)     ;
(PID.TID 0000.0001) calc_wVelocity = /* vertical velocity calculation on/off flag */
(PID.TID 0000.0001)                   T
(PID.TID 0000.0001)     ;
(PID.TID 0000.0001) momStepping =  /* Momentum equation on/off flag */
(PID.TID 0000.0001)                   T
(PID.TID 0000.0001)     ;
(PID.TID 0000.0001) vectorInvariantMomentum= /* Vector-Invariant Momentum on/off */
(PID.TID 0000.0001)                   F
(PID.TID 0000.0001)     ;
(PID.TID 0000.0001) momAdvection =  /* Momentum advection on/off flag */
(PID.TID 0000.0001)                   T
(PID.TID 0000.0001)     ;
(PID.TID 0000.0001) momViscosity =  /* Momentum viscosity on/off flag */
(PID.TID 0000.0001)                   T
(PID.TID 0000.0001)     ;
(PID.TID 0000.0001) momImplVertAdv= /* Momentum implicit vert. advection on/off*/
(PID.TID 0000.0001)                   F
(PID.TID 0000.0001)     ;
(PID.TID 0000.0001) implicitViscosity = /* Implicit viscosity on/off flag */
(PID.TID 0000.0001)                   F
(PID.TID 0000.0001)     ;
(PID.TID 0000.0001) selectImplicitDrag= /* Implicit bot Drag options (0,1,2)*/
(PID.TID 0000.0001)                       0
(PID.TID 0000.0001)     0= Expl. ; 1= Impl. on provis. Vel ; 2= Fully Impl (with surf.P)
(PID.TID 0000.0001)     ;
(PID.TID 0000.0001) selectMetricTerms= /* Metric-Terms on/off flag (=0/1) */
(PID.TID 0000.0001)                       0
(PID.TID 0000.0001)     ;
(PID.TID 0000.0001) useNHMTerms = /* Non-Hydrostatic Metric-Terms on/off */
(PID.TID 0000.0001)                   F
(PID.TID 0000.0001)     ;
(PID.TID 0000.0001) selectCoriMap = /* Coriolis Map options (0,1,2,3)*/
(PID.TID 0000.0001)                       1
(PID.TID 0000.0001)     0= f-Plane ; 1= Beta-Plane ; 2= Spherical ; 3= read from file
(PID.TID 0000.0001)     ;
(PID.TID 0000.0001) select3dCoriScheme= /* 3-D Coriolis on/off flag (=0/1) */
(PID.TID 0000.0001)                       0
(PID.TID 0000.0001)     ;
(PID.TID 0000.0001) useCoriolis =  /* Coriolis on/off flag */
(PID.TID 0000.0001)                   T
(PID.TID 0000.0001)     ;
(PID.TID 0000.0001) useCDscheme =  /* CD scheme on/off flag */
(PID.TID 0000.0001)                   F
(PID.TID 0000.0001)     ;
(PID.TID 0000.0001) selectCoriScheme= /* Scheme selector for Coriolis-Term */
(PID.TID 0000.0001)                       0
(PID.TID 0000.0001)    = 0 : original discretization (simple averaging, no hFac)
(PID.TID 0000.0001)    = 1 : Wet-point averaging (Jamar & Ozer 1986)
(PID.TID 0000.0001)    = 2 : energy conserving scheme (no hFac weight)
(PID.TID 0000.0001)    = 3 : energy conserving scheme using Wet-point averaging
(PID.TID 0000.0001)     ;
(PID.TID 0000.0001) momForcing =  /* Momentum forcing on/off flag */
(PID.TID 0000.0001)                   T
(PID.TID 0000.0001)     ;
(PID.TID 0000.0001) momTidalForcing = /* Momentum Tidal forcing on/off flag */
(PID.TID 0000.0001)                   T
(PID.TID 0000.0001)     ;
(PID.TID 0000.0001) momPressureForcing =  /* Momentum pressure term on/off flag */
(PID.TID 0000.0001)                   T
(PID.TID 0000.0001)     ;
(PID.TID 0000.0001) implicitIntGravWave= /* Implicit Internal Gravity Wave flag */
(PID.TID 0000.0001)                   F
(PID.TID 0000.0001)     ;
(PID.TID 0000.0001) staggerTimeStep =    /* Stagger time stepping on/off flag */
(PID.TID 0000.0001)                   F
(PID.TID 0000.0001)     ;
(PID.TID 0000.0001) doResetHFactors = /* reset thickness factors @ each time-step */
(PID.TID 0000.0001)                   F
(PID.TID 0000.0001)     ;
(PID.TID 0000.0001) multiDimAdvection =  /* enable/disable Multi-Dim Advection */
(PID.TID 0000.0001)                   T
(PID.TID 0000.0001)     ;
(PID.TID 0000.0001) useMultiDimAdvec =   /* Multi-Dim Advection is/is-not used */
(PID.TID 0000.0001)                   F
(PID.TID 0000.0001)     ;
(PID.TID 0000.0001) implicitDiffusion = /* Implicit Diffusion on/off flag */
(PID.TID 0000.0001)                   T
(PID.TID 0000.0001)     ;
(PID.TID 0000.0001) tempStepping =  /* Temperature equation on/off flag */
(PID.TID 0000.0001)                   T
(PID.TID 0000.0001)     ;
(PID.TID 0000.0001) tempAdvection = /* Temperature advection on/off flag */
(PID.TID 0000.0001)                   T
(PID.TID 0000.0001)     ;
(PID.TID 0000.0001) tempImplVertAdv = /* Temp. implicit vert. advection on/off */
(PID.TID 0000.0001)                   F
(PID.TID 0000.0001)     ;
(PID.TID 0000.0001) tempForcing  =  /* Temperature forcing on/off flag */
(PID.TID 0000.0001)                   T
(PID.TID 0000.0001)     ;
(PID.TID 0000.0001) doThetaClimRelax = /* apply SST relaxation on/off flag */
(PID.TID 0000.0001)                   F
(PID.TID 0000.0001)     ;
(PID.TID 0000.0001) tempIsActiveTr = /* Temp. is a dynamically Active Tracer */
(PID.TID 0000.0001)                   T
(PID.TID 0000.0001)     ;
(PID.TID 0000.0001) saltStepping =  /* Salinity equation on/off flag */
(PID.TID 0000.0001)                   T
(PID.TID 0000.0001)     ;
(PID.TID 0000.0001) saltAdvection = /* Salinity advection on/off flag */
(PID.TID 0000.0001)                   T
(PID.TID 0000.0001)     ;
(PID.TID 0000.0001) saltImplVertAdv = /* Sali. implicit vert. advection on/off */
(PID.TID 0000.0001)                   F
(PID.TID 0000.0001)     ;
(PID.TID 0000.0001) saltForcing  =  /* Salinity forcing on/off flag */
(PID.TID 0000.0001)                   T
(PID.TID 0000.0001)     ;
(PID.TID 0000.0001) doSaltClimRelax = /* apply SSS relaxation on/off flag */
(PID.TID 0000.0001)                   F
(PID.TID 0000.0001)     ;
(PID.TID 0000.0001) saltIsActiveTr = /* Salt  is a dynamically Active Tracer */
(PID.TID 0000.0001)                   T
(PID.TID 0000.0001)     ;
(PID.TID 0000.0001)  readBinaryPrec = /* Precision used for reading binary files */
(PID.TID 0000.0001)                      64
(PID.TID 0000.0001)     ;
(PID.TID 0000.0001) writeBinaryPrec = /* Precision used for writing binary files */
(PID.TID 0000.0001)                      64
(PID.TID 0000.0001)     ;
(PID.TID 0000.0001)  rwSuffixType =   /* select format of mds file suffix */
(PID.TID 0000.0001)                       0
(PID.TID 0000.0001)    = 0 : myIter (I10.10) ;   = 1 : 100*myTime (100th sec) ;
(PID.TID 0000.0001)    = 2 : myTime (seconds);   = 3 : myTime/360 (10th of hr);
(PID.TID 0000.0001)    = 4 : myTime/3600 (hours)
(PID.TID 0000.0001)     ;
(PID.TID 0000.0001)  globalFiles = /* write "global" (=not per tile) files */
(PID.TID 0000.0001)                   F
(PID.TID 0000.0001)     ;
(PID.TID 0000.0001)  useSingleCpuIO = /* only master MPI process does I/O */
(PID.TID 0000.0001)                   T
(PID.TID 0000.0001)     ;
(PID.TID 0000.0001)  useSingleCpuInput = /* only master process reads input */
(PID.TID 0000.0001)                   T
(PID.TID 0000.0001)     ;
(PID.TID 0000.0001) /* debLev[*]  : level of debug & auxiliary message printing */
(PID.TID 0000.0001) debLevZero =  0 ; /* level of disabled aux. msg printing */
(PID.TID 0000.0001)    debLevA =  1 ; /* level of minimum  aux. msg printing */
(PID.TID 0000.0001)    debLevB =  2 ; /* level of low aux. print (report read-file opening)*/
(PID.TID 0000.0001)    debLevC =  3 ; /* level of moderate debug prt (most pkgs debug msg) */
(PID.TID 0000.0001)    debLevD =  4 ; /* level of enhanced debug prt (add DEBUG_STATS prt) */
(PID.TID 0000.0001)    debLevE =  5 ; /* level of extensive debug printing */
(PID.TID 0000.0001) debugLevel =  /* select debug printing level */
(PID.TID 0000.0001)                       2
(PID.TID 0000.0001)     ;
(PID.TID 0000.0001)  plotLevel =  /* select PLOT_FIELD printing level */
(PID.TID 0000.0001)                       2
(PID.TID 0000.0001)     ;
(PID.TID 0000.0001) //
(PID.TID 0000.0001) // Elliptic solver(s) paramters ( PARM02 in namelist )
(PID.TID 0000.0001) //
(PID.TID 0000.0001) cg2dMaxIters =   /* Upper limit on 2d con. grad iterations  */
(PID.TID 0000.0001)                    1000
(PID.TID 0000.0001)     ;
(PID.TID 0000.0001) cg2dMinItersNSA =   /* Minimum number of iterations of 2d con. grad solver  */
(PID.TID 0000.0001)                       0
(PID.TID 0000.0001)     ;
(PID.TID 0000.0001) cg2dUseMinResSol= /* use cg2d last-iter(=0) / min-resid.(=1) solution */
(PID.TID 0000.0001)                       0
(PID.TID 0000.0001)     ;
(PID.TID 0000.0001) cg2dTargetResidual =   /* 2d con. grad target residual  */
(PID.TID 0000.0001)                 1.000000000000000E-07
(PID.TID 0000.0001)     ;
(PID.TID 0000.0001) cg2dTargetResWunit =   /* CG2d target residual [W units] */
(PID.TID 0000.0001)                -1.000000000000000E+00
(PID.TID 0000.0001)     ;
(PID.TID 0000.0001) cg2dPreCondFreq =   /* Freq. for updating cg2d preconditioner */
(PID.TID 0000.0001)                       1
(PID.TID 0000.0001)     ;
(PID.TID 0000.0001) useSRCGSolver =  /* use single reduction CG solver(s) */
(PID.TID 0000.0001)                   F
(PID.TID 0000.0001)     ;
(PID.TID 0000.0001) useNSACGSolver =  /* use not-self-adjoint CG solver */
(PID.TID 0000.0001)                   F
(PID.TID 0000.0001)     ;
(PID.TID 0000.0001) printResidualFreq = /* Freq. for printing CG residual */
(PID.TID 0000.0001)                       0
(PID.TID 0000.0001)     ;
(PID.TID 0000.0001) //
(PID.TID 0000.0001) // Time stepping paramters ( PARM03 in namelist )
(PID.TID 0000.0001) //
(PID.TID 0000.0001) deltaTMom =   /* Momentum equation timestep ( s ) */
(PID.TID 0000.0001)                 6.000000000000000E+01
(PID.TID 0000.0001)     ;
(PID.TID 0000.0001) deltaTFreeSurf = /* FreeSurface equation timestep ( s ) */
(PID.TID 0000.0001)                 6.000000000000000E+01
(PID.TID 0000.0001)     ;
(PID.TID 0000.0001) dTtracerLev =  /* Tracer equation timestep ( s ) */
(PID.TID 0000.0001)    30 @  6.000000000000000E+01              /* K =  1: 30 */
(PID.TID 0000.0001)     ;
(PID.TID 0000.0001) deltaTClock  =   /* Model clock timestep ( s ) */
(PID.TID 0000.0001)                 6.000000000000000E+01
(PID.TID 0000.0001)     ;
(PID.TID 0000.0001) cAdjFreq =   /* Convective adjustment interval ( s ) */
(PID.TID 0000.0001)                 0.000000000000000E+00
(PID.TID 0000.0001)     ;
(PID.TID 0000.0001) momForcingOutAB = /* =1: take Momentum Forcing out of Adams-Bash. stepping */
(PID.TID 0000.0001)                       0
(PID.TID 0000.0001)     ;
(PID.TID 0000.0001) tracForcingOutAB = /* =1: take T,S,pTr Forcing out of Adams-Bash. stepping */
(PID.TID 0000.0001)                       0
(PID.TID 0000.0001)     ;
(PID.TID 0000.0001) momDissip_In_AB = /* put Dissipation Tendency in Adams-Bash. stepping */
(PID.TID 0000.0001)                   T
(PID.TID 0000.0001)     ;
(PID.TID 0000.0001) doAB_onGtGs = /* apply AB on Tendencies (rather than on T,S)*/
(PID.TID 0000.0001)                   T
(PID.TID 0000.0001)     ;
(PID.TID 0000.0001) abEps =   /* Adams-Bashforth-2 stabilizing weight */
(PID.TID 0000.0001)                 1.000000000000000E-02
(PID.TID 0000.0001)     ;
(PID.TID 0000.0001) applyExchUV_early = /* Apply EXCH to U,V earlier in time-step */
(PID.TID 0000.0001)                   F
(PID.TID 0000.0001)     ;
(PID.TID 0000.0001) pickupStrictlyMatch= /* stop if pickup do not strictly match */
(PID.TID 0000.0001)                   T
(PID.TID 0000.0001)     ;
(PID.TID 0000.0001) nIter0   =   /* Run starting timestep number */
(PID.TID 0000.0001)                       0
(PID.TID 0000.0001)     ;
(PID.TID 0000.0001) nTimeSteps = /* Number of timesteps */
(PID.TID 0000.0001)                    1200
(PID.TID 0000.0001)     ;
(PID.TID 0000.0001) nEndIter =   /* Run ending timestep number */
(PID.TID 0000.0001)                    1200
(PID.TID 0000.0001)     ;
(PID.TID 0000.0001) baseTime =   /* Model base time ( s ) */
(PID.TID 0000.0001)                 0.000000000000000E+00
(PID.TID 0000.0001)     ;
(PID.TID 0000.0001) startTime =  /* Run start time ( s ) */
(PID.TID 0000.0001)                 0.000000000000000E+00
(PID.TID 0000.0001)     ;
(PID.TID 0000.0001) endTime  =   /* Integration ending time ( s ) */
(PID.TID 0000.0001)                 7.200000000000000E+04
(PID.TID 0000.0001)     ;
(PID.TID 0000.0001) pChkPtFreq = /* Permanent restart/pickup file interval ( s ) */
(PID.TID 0000.0001)                 0.000000000000000E+00
(PID.TID 0000.0001)     ;
(PID.TID 0000.0001) chkPtFreq  = /* Rolling restart/pickup file interval ( s ) */
(PID.TID 0000.0001)                 4.320000000000000E+04
(PID.TID 0000.0001)     ;
(PID.TID 0000.0001) pickup_write_mdsio =   /* Model IO flag. */
(PID.TID 0000.0001)                   T
(PID.TID 0000.0001)     ;
(PID.TID 0000.0001) pickup_read_mdsio =   /* Model IO flag. */
(PID.TID 0000.0001)                   T
(PID.TID 0000.0001)     ;
(PID.TID 0000.0001) pickup_write_mnc =   /* Model IO flag. */
(PID.TID 0000.0001)                   F
(PID.TID 0000.0001)     ;
(PID.TID 0000.0001) pickup_read_mnc =   /* Model IO flag. */
(PID.TID 0000.0001)                   F
(PID.TID 0000.0001)     ;
(PID.TID 0000.0001) writePickupAtEnd =   /* Model IO flag. */
(PID.TID 0000.0001)                   T
(PID.TID 0000.0001)     ;
(PID.TID 0000.0001) dumpFreq =   /* Model state write out interval ( s ). */
(PID.TID 0000.0001)                 1.200000000000000E+03
(PID.TID 0000.0001)     ;
(PID.TID 0000.0001) dumpInitAndLast= /* write out Initial & Last iter. model state */
(PID.TID 0000.0001)                   T
(PID.TID 0000.0001)     ;
(PID.TID 0000.0001) snapshot_mdsio =   /* Model IO flag. */
(PID.TID 0000.0001)                   F
(PID.TID 0000.0001)     ;
(PID.TID 0000.0001) snapshot_mnc =   /* Model IO flag. */
(PID.TID 0000.0001)                   T
(PID.TID 0000.0001)     ;
(PID.TID 0000.0001) monitorFreq =   /* Monitor output interval ( s ). */
(PID.TID 0000.0001)                 1.200000000000000E+03
(PID.TID 0000.0001)     ;
(PID.TID 0000.0001) monitorSelect = /* select group of variables to monitor */
(PID.TID 0000.0001)                       2
(PID.TID 0000.0001)     ;
(PID.TID 0000.0001) monitor_stdio =   /* Model IO flag. */
(PID.TID 0000.0001)                   T
(PID.TID 0000.0001)     ;
(PID.TID 0000.0001) monitor_mnc =   /* Model IO flag. */
(PID.TID 0000.0001)                   F
(PID.TID 0000.0001)     ;
(PID.TID 0000.0001) externForcingPeriod =   /* forcing period (s) */
(PID.TID 0000.0001)                 1.200000000000000E+03
(PID.TID 0000.0001)     ;
(PID.TID 0000.0001) externForcingCycle =   /* period of the cyle (s). */
(PID.TID 0000.0001)                 7.200000000000000E+04
(PID.TID 0000.0001)     ;
(PID.TID 0000.0001) tauThetaClimRelax =   /* relaxation time scale (s) */
(PID.TID 0000.0001)                 0.000000000000000E+00
(PID.TID 0000.0001)     ;
(PID.TID 0000.0001) tauSaltClimRelax =   /* relaxation time scale (s) */
(PID.TID 0000.0001)                 0.000000000000000E+00
(PID.TID 0000.0001)     ;
(PID.TID 0000.0001) latBandClimRelax =   /* max. Lat. where relaxation */
(PID.TID 0000.0001)                 1.929028200000013E+06
(PID.TID 0000.0001)     ;
(PID.TID 0000.0001) //
(PID.TID 0000.0001) // Gridding paramters ( PARM04 in namelist )
(PID.TID 0000.0001) //
(PID.TID 0000.0001) usingCartesianGrid = /* Cartesian coordinates flag ( True/False ) */
(PID.TID 0000.0001)                   T
(PID.TID 0000.0001)     ;
(PID.TID 0000.0001) usingCylindricalGrid = /* Cylindrical coordinates flag ( True/False ) */
(PID.TID 0000.0001)                   F
(PID.TID 0000.0001)     ;
(PID.TID 0000.0001) usingSphericalPolarGrid = /* Spherical coordinates flag ( True/False ) */
(PID.TID 0000.0001)                   F
(PID.TID 0000.0001)     ;
(PID.TID 0000.0001) usingCurvilinearGrid = /* Curvilinear coordinates flag ( True/False ) */
(PID.TID 0000.0001)                   F
(PID.TID 0000.0001)     ;
(PID.TID 0000.0001) useMin4hFacEdges = /* set hFacW,S as minimum of adjacent hFacC factor */
(PID.TID 0000.0001)                   F
(PID.TID 0000.0001)     ;
(PID.TID 0000.0001) interViscAr_pCell = /* account for partial-cell in interior vert. viscosity */
(PID.TID 0000.0001)                   F
(PID.TID 0000.0001)     ;
(PID.TID 0000.0001) interDiffKr_pCell = /* account for partial-cell in interior vert. diffusion */
(PID.TID 0000.0001)                   F
(PID.TID 0000.0001)     ;
(PID.TID 0000.0001) pCellMix_select = /* option to enhance mixing near surface & bottom */
(PID.TID 0000.0001)                       0
(PID.TID 0000.0001)     ;
(PID.TID 0000.0001) selectSigmaCoord = /* Hybrid-Sigma Vert. Coordinate option */
(PID.TID 0000.0001)                       0
(PID.TID 0000.0001)     ;
(PID.TID 0000.0001) rSigmaBnd = /* r/sigma transition ( units of r ==  m ) */
(PID.TID 0000.0001)                 1.234567000000000E+05
(PID.TID 0000.0001)     ;
(PID.TID 0000.0001) rkSign =   /* index orientation relative to vertical coordinate */
(PID.TID 0000.0001)                -1.000000000000000E+00
(PID.TID 0000.0001)     ;
(PID.TID 0000.0001) gravitySign = /* gravity orientation relative to vertical coordinate */
(PID.TID 0000.0001)                -1.000000000000000E+00
(PID.TID 0000.0001)     ;
(PID.TID 0000.0001) seaLev_Z =  /* reference height of sea-level [m] */
(PID.TID 0000.0001)                 0.000000000000000E+00
(PID.TID 0000.0001)     ;
(PID.TID 0000.0001) top_Pres =  /* reference pressure at the top [Pa] */
(PID.TID 0000.0001)                 0.000000000000000E+00
(PID.TID 0000.0001)     ;
(PID.TID 0000.0001) mass2rUnit = /* convert mass per unit area [kg/m2] to r-units [m] */
(PID.TID 0000.0001)                 1.000200040008002E-03
(PID.TID 0000.0001)     ;
(PID.TID 0000.0001) rUnit2mass = /* convert r-units [m] to mass per unit area [kg/m2] */
(PID.TID 0000.0001)                 9.998000000000000E+02
(PID.TID 0000.0001)     ;
(PID.TID 0000.0001) drC =   /* C spacing ( units of r ) */
(PID.TID 0000.0001)                 1.000000000000000E+00,      /* K =  1 */
(PID.TID 0000.0001)                 2.150000000000000E+00,      /* K =  2 */
(PID.TID 0000.0001)                 2.500000000000000E+00,      /* K =  3 */
(PID.TID 0000.0001)                 2.900000000000000E+00,      /* K =  4 */
(PID.TID 0000.0001)                 3.350000000000000E+00,      /* K =  5 */
(PID.TID 0000.0001)                 3.850000000000000E+00,      /* K =  6 */
(PID.TID 0000.0001)                 4.449999999999999E+00,      /* K =  7 */
(PID.TID 0000.0001)                 5.199999999999999E+00,      /* K =  8 */
(PID.TID 0000.0001)                 6.000000000000000E+00,      /* K =  9 */
(PID.TID 0000.0001)                 6.900000000000000E+00,      /* K = 10 */
(PID.TID 0000.0001)                 8.000000000000000E+00,      /* K = 11 */
(PID.TID 0000.0001)                 9.300000000000001E+00,      /* K = 12 */
(PID.TID 0000.0001)                 1.075000000000000E+01,      /* K = 13 */
(PID.TID 0000.0001)                 1.240000000000000E+01,      /* K = 14 */
(PID.TID 0000.0001)                 1.435000000000000E+01,      /* K = 15 */
(PID.TID 0000.0001)                 1.660000000000000E+01,      /* K = 16 */
(PID.TID 0000.0001)                 1.920000000000000E+01,      /* K = 17 */
(PID.TID 0000.0001)                 2.225000000000000E+01,      /* K = 18 */
(PID.TID 0000.0001)                 2.575000000000000E+01,      /* K = 19 */
(PID.TID 0000.0001)                 2.980000000000000E+01,      /* K = 20 */
(PID.TID 0000.0001)                 3.450000000000000E+01,      /* K = 21 */
(PID.TID 0000.0001)                 3.990000000000000E+01,      /* K = 22 */
(PID.TID 0000.0001)                 4.615000000000000E+01,      /* K = 23 */
(PID.TID 0000.0001)                 5.340000000000000E+01,      /* K = 24 */
(PID.TID 0000.0001)                 6.180000000000000E+01,      /* K = 25 */
(PID.TID 0000.0001)                 7.150000000000000E+01,      /* K = 26 */
(PID.TID 0000.0001)                 8.275000000000000E+01,      /* K = 27 */
(PID.TID 0000.0001)                 9.575000000000000E+01,      /* K = 28 */
(PID.TID 0000.0001)                 1.107500000000000E+02,      /* K = 29 */
(PID.TID 0000.0001)                 1.281000000000000E+02,      /* K = 30 */
(PID.TID 0000.0001)                 6.870000000000000E+01       /* K = 31 */
(PID.TID 0000.0001)     ;
(PID.TID 0000.0001) drF =   /* W spacing ( units of r ) */
(PID.TID 0000.0001)                 2.000000000000000E+00,      /* K =  1 */
(PID.TID 0000.0001)                 2.300000000000000E+00,      /* K =  2 */
(PID.TID 0000.0001)                 2.700000000000000E+00,      /* K =  3 */
(PID.TID 0000.0001)                 3.100000000000000E+00,      /* K =  4 */
(PID.TID 0000.0001)                 3.600000000000000E+00,      /* K =  5 */
(PID.TID 0000.0001)                 4.100000000000000E+00,      /* K =  6 */
(PID.TID 0000.0001)                 4.800000000000000E+00,      /* K =  7 */
(PID.TID 0000.0001)                 5.600000000000000E+00,      /* K =  8 */
(PID.TID 0000.0001)                 6.400000000000000E+00,      /* K =  9 */
(PID.TID 0000.0001)                 7.400000000000000E+00,      /* K = 10 */
(PID.TID 0000.0001)                 8.600000000000000E+00,      /* K = 11 */
(PID.TID 0000.0001)                 1.000000000000000E+01,      /* K = 12 */
(PID.TID 0000.0001)                 1.150000000000000E+01,      /* K = 13 */
(PID.TID 0000.0001)                 1.330000000000000E+01,      /* K = 14 */
(PID.TID 0000.0001)                 1.540000000000000E+01,      /* K = 15 */
(PID.TID 0000.0001)                 1.780000000000000E+01,      /* K = 16 */
(PID.TID 0000.0001)                 2.060000000000000E+01,      /* K = 17 */
(PID.TID 0000.0001)                 2.390000000000000E+01,      /* K = 18 */
(PID.TID 0000.0001)                 2.760000000000000E+01,      /* K = 19 */
(PID.TID 0000.0001)                 3.200000000000000E+01,      /* K = 20 */
(PID.TID 0000.0001)                 3.700000000000000E+01,      /* K = 21 */
(PID.TID 0000.0001)                 4.280000000000000E+01,      /* K = 22 */
(PID.TID 0000.0001)                 4.950000000000000E+01,      /* K = 23 */
(PID.TID 0000.0001)                 5.730000000000000E+01,      /* K = 24 */
(PID.TID 0000.0001)                 6.630000000000000E+01,      /* K = 25 */
(PID.TID 0000.0001)                 7.670000000000000E+01,      /* K = 26 */
(PID.TID 0000.0001)                 8.880000000000000E+01,      /* K = 27 */
(PID.TID 0000.0001)                 1.027000000000000E+02,      /* K = 28 */
(PID.TID 0000.0001)                 1.188000000000000E+02,      /* K = 29 */
(PID.TID 0000.0001)                 1.374000000000000E+02       /* K = 30 */
(PID.TID 0000.0001)     ;
(PID.TID 0000.0001) delX = /* U spacing ( m - cartesian, degrees - spherical ) */
(PID.TID 0000.0001)                 6.600000000000000E+04,      /* I =  1 */
(PID.TID 0000.0001)                 6.200000000000000E+04,      /* I =  2 */
(PID.TID 0000.0001)                 5.800000000000000E+04,      /* I =  3 */
(PID.TID 0000.0001)      . . .
(PID.TID 0000.0001)                 2.008399999999994E+03,      /* I = 66 */
(PID.TID 0000.0001)                 2.008399999999994E+03,      /* I = 67 */
(PID.TID 0000.0001)                 2.008500000000000E+03,      /* I = 68 */
(PID.TID 0000.0001)                 2.008399999999994E+03,      /* I = 69 */
(PID.TID 0000.0001)                 2.008500000000000E+03,      /* I = 70 */
(PID.TID 0000.0001)                 2.008400000000009E+03,      /* I = 71 */
(PID.TID 0000.0001)      . . .
(PID.TID 0000.0001)                 2.008400000000001E+03,      /* I =134 */
(PID.TID 0000.0001)                 2.008500000000000E+03,      /* I =135 */
(PID.TID 0000.0001)                 2.008400000000000E+03,      /* I =136 */
(PID.TID 0000.0001)                 2.008500000000000E+03,      /* I =137 */
(PID.TID 0000.0001)                 2.008400000000001E+03,      /* I =138 */
(PID.TID 0000.0001)                 2.008400000000000E+03,      /* I =139 */
(PID.TID 0000.0001)      . . .
(PID.TID 0000.0001)                 2.008500000000000E+03,      /* I =202 */
(PID.TID 0000.0001)                 2.008399999999994E+03,      /* I =203 */
(PID.TID 0000.0001)                 2.008500000000000E+03,      /* I =204 */
(PID.TID 0000.0001)                 2.008399999999994E+03,      /* I =205 */
(PID.TID 0000.0001)                 2.008399999999994E+03,      /* I =206 */
(PID.TID 0000.0001)                 2.008500000000000E+03,      /* I =207 */
(PID.TID 0000.0001)      . . .
(PID.TID 0000.0001)                 6.200000000000000E+04,      /* I =270 */
(PID.TID 0000.0001)                 6.600000000000000E+04,      /* I =271 */
(PID.TID 0000.0001)                 6.600000000000000E+04       /* I =272 */
(PID.TID 0000.0001)     ;
(PID.TID 0000.0001) delY = /* V spacing ( m - cartesian, degrees - spherical ) */
(PID.TID 0000.0001)                 2.009400000000023E+03,      /* J =  1 */
(PID.TID 0000.0001)                 2.009399999999965E+03,      /* J =  2 */
(PID.TID 0000.0001)                 2.009400000000023E+03,      /* J =  3 */
(PID.TID 0000.0001)      . . .
(PID.TID 0000.0001)                 2.009400000000023E+03,      /* J = 78 */
(PID.TID 0000.0001)                 2.009400000000023E+03,      /* J = 79 */
(PID.TID 0000.0001)                 2.009500000000000E+03,      /* J = 80 */
(PID.TID 0000.0001)                 2.009399999999965E+03,      /* J = 81 */
(PID.TID 0000.0001)                 2.009400000000023E+03,      /* J = 82 */
(PID.TID 0000.0001)                 2.009399999999965E+03,      /* J = 83 */
(PID.TID 0000.0001)      . . .
(PID.TID 0000.0001)                 2.009399999999994E+03,      /* J =158 */
(PID.TID 0000.0001)                 2.009399999999994E+03,      /* J =159 */
(PID.TID 0000.0001)                 2.009400000000023E+03,      /* J =160 */
(PID.TID 0000.0001)                 2.009399999999994E+03,      /* J =161 */
(PID.TID 0000.0001)                 2.009399999999994E+03,      /* J =162 */
(PID.TID 0000.0001)                 2.009399999999994E+03,      /* J =163 */
(PID.TID 0000.0001)      . . .
(PID.TID 0000.0001)                 2.009400000000001E+03,      /* J =238 */
(PID.TID 0000.0001)                 2.009399999999998E+03,      /* J =239 */
(PID.TID 0000.0001)                 2.009500000000000E+03,      /* J =240 */
(PID.TID 0000.0001)                 2.009400000000001E+03,      /* J =241 */
(PID.TID 0000.0001)                 2.009400000000000E+03,      /* J =242 */
(PID.TID 0000.0001)                 2.009400000000000E+03,      /* J =243 */
(PID.TID 0000.0001)      . . .
(PID.TID 0000.0001)                 2.009399999999994E+03,      /* J =318 */
(PID.TID 0000.0001)                 2.009399999999994E+03,      /* J =319 */
(PID.TID 0000.0001)                 2.009399999999994E+03       /* J =320 */
(PID.TID 0000.0001)     ;
(PID.TID 0000.0001) xgOrigin = /* X-axis origin of West  edge (cartesian: m, lat-lon: deg) */
(PID.TID 0000.0001)                -8.430000000000000E+05
(PID.TID 0000.0001)     ;
(PID.TID 0000.0001) ygOrigin = /* Y-axis origin of South edge (cartesian: m, lat-lon: deg) */
(PID.TID 0000.0001)                -6.200000000000000E+04
(PID.TID 0000.0001)     ;
(PID.TID 0000.0001) rSphere =  /* Radius ( ignored - cartesian, m - spherical ) */
(PID.TID 0000.0001)                 6.370000000000000E+06
(PID.TID 0000.0001)     ;
(PID.TID 0000.0001) deepAtmosphere = /* Deep/Shallow Atmosphere flag (True/False) */
(PID.TID 0000.0001)                   F
(PID.TID 0000.0001)     ;
(PID.TID 0000.0001) xC =  /* xC(:,1,:,1) : P-point X coord ( deg. or m if cartesian) */
(PID.TID 0000.0001)                -8.100000000000000E+05,      /* I =  1 */
(PID.TID 0000.0001)                -7.460000000000000E+05,      /* I =  2 */
(PID.TID 0000.0001)                -6.860000000000000E+05,      /* I =  3 */
(PID.TID 0000.0001)      . . .
(PID.TID 0000.0001)                -1.675907000000000E+05,      /* I = 66 */
(PID.TID 0000.0001)                -1.655823000000000E+05,      /* I = 67 */
(PID.TID 0000.0001)                -1.635738500000000E+05,      /* I = 68 */
(PID.TID 0000.0001)                -1.615654000000000E+05,      /* I = 69 */
(PID.TID 0000.0001)                -1.595569500000000E+05,      /* I = 70 */
(PID.TID 0000.0001)                -1.575485000000000E+05,      /* I = 71 */
(PID.TID 0000.0001)      . . .
(PID.TID 0000.0001)                -3.101690000000001E+04,      /* I =134 */
(PID.TID 0000.0001)                -2.900845000000000E+04,      /* I =135 */
(PID.TID 0000.0001)                -2.700000000000000E+04,      /* I =136 */
(PID.TID 0000.0001)                -2.499155000000000E+04,      /* I =137 */
(PID.TID 0000.0001)                -2.298310000000000E+04,      /* I =138 */
(PID.TID 0000.0001)                -2.097470000000000E+04,      /* I =139 */
(PID.TID 0000.0001)      . . .
(PID.TID 0000.0001)                 1.055569500000000E+05,      /* I =202 */
(PID.TID 0000.0001)                 1.075654000000000E+05,      /* I =203 */
(PID.TID 0000.0001)                 1.095738500000000E+05,      /* I =204 */
(PID.TID 0000.0001)                 1.115823000000000E+05,      /* I =205 */
(PID.TID 0000.0001)                 1.135907000000000E+05,      /* I =206 */
(PID.TID 0000.0001)                 1.155991500000000E+05,      /* I =207 */
(PID.TID 0000.0001)      . . .
(PID.TID 0000.0001)                 6.920000000000000E+05,      /* I =270 */
(PID.TID 0000.0001)                 7.560000000000000E+05,      /* I =271 */
(PID.TID 0000.0001)                 8.220000000000000E+05       /* I =272 */
(PID.TID 0000.0001)     ;
(PID.TID 0000.0001) yC =  /* yC(1,:,1,:) : P-point Y coord ( deg. or m if cartesian) */
(PID.TID 0000.0001)                -6.099529999999999E+04,      /* J =  1 */
(PID.TID 0000.0001)                -5.898589999999999E+04,      /* J =  2 */
(PID.TID 0000.0001)                -5.697650000000000E+04,      /* J =  3 */
(PID.TID 0000.0001)      . . .
(PID.TID 0000.0001)                 9.372879999999999E+04,      /* J = 78 */
(PID.TID 0000.0001)                 9.573820000000001E+04,      /* J = 79 */
(PID.TID 0000.0001)                 9.774765000000002E+04,      /* J = 80 */
(PID.TID 0000.0001)                 9.975710000000001E+04,      /* J = 81 */
(PID.TID 0000.0001)                 1.017665000000000E+05,      /* J = 82 */
(PID.TID 0000.0001)                 1.037759000000000E+05,      /* J = 83 */
(PID.TID 0000.0001)      . . .
(PID.TID 0000.0001)                 2.544812000000000E+05,      /* J =158 */
(PID.TID 0000.0001)                 2.564906000000000E+05,      /* J =159 */
(PID.TID 0000.0001)                 2.585000000000000E+05,      /* J =160 */
(PID.TID 0000.0001)                 2.605094000000000E+05,      /* J =161 */
(PID.TID 0000.0001)                 2.625188000000000E+05,      /* J =162 */
(PID.TID 0000.0001)                 2.645282000000000E+05,      /* J =163 */
(PID.TID 0000.0001)      . . .
(PID.TID 0000.0001)                 4.152335000000016E+05,      /* J =238 */
(PID.TID 0000.0001)                 4.172429000000017E+05,      /* J =239 */
(PID.TID 0000.0001)                 4.192523500000017E+05,      /* J =240 */
(PID.TID 0000.0001)                 4.212618000000018E+05,      /* J =241 */
(PID.TID 0000.0001)                 4.232712000000018E+05,      /* J =242 */
(PID.TID 0000.0001)                 4.252806000000017E+05,      /* J =243 */
(PID.TID 0000.0001)      . . .
(PID.TID 0000.0001)                 5.759859000000034E+05,      /* J =318 */
(PID.TID 0000.0001)                 5.779953000000035E+05,      /* J =319 */
(PID.TID 0000.0001)                 5.800047000000036E+05       /* J =320 */
(PID.TID 0000.0001)     ;
(PID.TID 0000.0001) rcoord = /* P-point R coordinate (  units of r ) */
(PID.TID 0000.0001)                -1.000000000000000E+00,      /* K =  1 */
(PID.TID 0000.0001)                -3.150000000000000E+00,      /* K =  2 */
(PID.TID 0000.0001)                -5.650000000000000E+00,      /* K =  3 */
(PID.TID 0000.0001)                -8.550000000000001E+00,      /* K =  4 */
(PID.TID 0000.0001)                -1.190000000000000E+01,      /* K =  5 */
(PID.TID 0000.0001)                -1.575000000000000E+01,      /* K =  6 */
(PID.TID 0000.0001)                -2.020000000000000E+01,      /* K =  7 */
(PID.TID 0000.0001)                -2.540000000000000E+01,      /* K =  8 */
(PID.TID 0000.0001)                -3.140000000000000E+01,      /* K =  9 */
(PID.TID 0000.0001)                -3.830000000000000E+01,      /* K = 10 */
(PID.TID 0000.0001)                -4.630000000000000E+01,      /* K = 11 */
(PID.TID 0000.0001)                -5.559999999999999E+01,      /* K = 12 */
(PID.TID 0000.0001)                -6.634999999999999E+01,      /* K = 13 */
(PID.TID 0000.0001)                -7.875000000000000E+01,      /* K = 14 */
(PID.TID 0000.0001)                -9.309999999999999E+01,      /* K = 15 */
(PID.TID 0000.0001)                -1.097000000000000E+02,      /* K = 16 */
(PID.TID 0000.0001)                -1.289000000000000E+02,      /* K = 17 */
(PID.TID 0000.0001)                -1.511500000000000E+02,      /* K = 18 */
(PID.TID 0000.0001)                -1.769000000000000E+02,      /* K = 19 */
(PID.TID 0000.0001)                -2.067000000000000E+02,      /* K = 20 */
(PID.TID 0000.0001)                -2.412000000000000E+02,      /* K = 21 */
(PID.TID 0000.0001)                -2.811000000000000E+02,      /* K = 22 */
(PID.TID 0000.0001)                -3.272499999999999E+02,      /* K = 23 */
(PID.TID 0000.0001)                -3.806499999999999E+02,      /* K = 24 */
(PID.TID 0000.0001)                -4.424499999999999E+02,      /* K = 25 */
(PID.TID 0000.0001)                -5.139499999999999E+02,      /* K = 26 */
(PID.TID 0000.0001)                -5.966999999999999E+02,      /* K = 27 */
(PID.TID 0000.0001)                -6.924499999999999E+02,      /* K = 28 */
(PID.TID 0000.0001)                -8.031999999999999E+02,      /* K = 29 */
(PID.TID 0000.0001)                -9.313000000000000E+02       /* K = 30 */
(PID.TID 0000.0001)     ;
(PID.TID 0000.0001) rF =   /* W-Interf. R coordinate (  units of r ) */
(PID.TID 0000.0001)                 0.000000000000000E+00,      /* K =  1 */
(PID.TID 0000.0001)                -2.000000000000000E+00,      /* K =  2 */
(PID.TID 0000.0001)                -4.300000000000000E+00,      /* K =  3 */
(PID.TID 0000.0001)                -7.000000000000000E+00,      /* K =  4 */
(PID.TID 0000.0001)                -1.010000000000000E+01,      /* K =  5 */
(PID.TID 0000.0001)                -1.370000000000000E+01,      /* K =  6 */
(PID.TID 0000.0001)                -1.780000000000000E+01,      /* K =  7 */
(PID.TID 0000.0001)                -2.260000000000000E+01,      /* K =  8 */
(PID.TID 0000.0001)                -2.820000000000000E+01,      /* K =  9 */
(PID.TID 0000.0001)                -3.459999999999999E+01,      /* K = 10 */
(PID.TID 0000.0001)                -4.199999999999999E+01,      /* K = 11 */
(PID.TID 0000.0001)                -5.059999999999999E+01,      /* K = 12 */
(PID.TID 0000.0001)                -6.059999999999999E+01,      /* K = 13 */
(PID.TID 0000.0001)                -7.209999999999999E+01,      /* K = 14 */
(PID.TID 0000.0001)                -8.539999999999999E+01,      /* K = 15 */
(PID.TID 0000.0001)                -1.008000000000000E+02,      /* K = 16 */
(PID.TID 0000.0001)                -1.186000000000000E+02,      /* K = 17 */
(PID.TID 0000.0001)                -1.392000000000000E+02,      /* K = 18 */
(PID.TID 0000.0001)                -1.631000000000000E+02,      /* K = 19 */
(PID.TID 0000.0001)                -1.907000000000000E+02,      /* K = 20 */
(PID.TID 0000.0001)                -2.227000000000000E+02,      /* K = 21 */
(PID.TID 0000.0001)                -2.597000000000000E+02,      /* K = 22 */
(PID.TID 0000.0001)                -3.025000000000000E+02,      /* K = 23 */
(PID.TID 0000.0001)                -3.520000000000000E+02,      /* K = 24 */
(PID.TID 0000.0001)                -4.093000000000000E+02,      /* K = 25 */
(PID.TID 0000.0001)                -4.756000000000000E+02,      /* K = 26 */
(PID.TID 0000.0001)                -5.523000000000001E+02,      /* K = 27 */
(PID.TID 0000.0001)                -6.411000000000000E+02,      /* K = 28 */
(PID.TID 0000.0001)                -7.438000000000001E+02,      /* K = 29 */
(PID.TID 0000.0001)                -8.626000000000000E+02,      /* K = 30 */
(PID.TID 0000.0001)                -1.000000000000000E+03       /* K = 31 */
(PID.TID 0000.0001)     ;
(PID.TID 0000.0001) deepFacC = /* deep-model grid factor @ cell-Center (-) */
(PID.TID 0000.0001)    30 @  1.000000000000000E+00              /* K =  1: 30 */
(PID.TID 0000.0001)     ;
(PID.TID 0000.0001) deepFacF = /* deep-model grid factor @ W-Interface (-) */
(PID.TID 0000.0001)    31 @  1.000000000000000E+00              /* K =  1: 31 */
(PID.TID 0000.0001)     ;
(PID.TID 0000.0001) rotateGrid = /* use rotated grid ( True/False ) */
(PID.TID 0000.0001)                   F
(PID.TID 0000.0001)     ;
(PID.TID 0000.0001) phiEuler = /* Euler angle, rotation about original z-coordinate [rad] */
(PID.TID 0000.0001)                 0.000000000000000E+00
(PID.TID 0000.0001)     ;
(PID.TID 0000.0001) thetaEuler = /* Euler angle, rotation about new x-coordinate [rad] */
(PID.TID 0000.0001)                 0.000000000000000E+00
(PID.TID 0000.0001)     ;
(PID.TID 0000.0001) psiEuler = /* Euler angle, rotation about new z-coordinate [rad] */
(PID.TID 0000.0001)                 0.000000000000000E+00
(PID.TID 0000.0001)     ;
(PID.TID 0000.0001) dxF =  /* dxF(:,1,:,1) ( units: m ) */
(PID.TID 0000.0001)                 6.600000000000000E+04,      /* I =  1 */
(PID.TID 0000.0001)                 6.200000000000000E+04,      /* I =  2 */
(PID.TID 0000.0001)                 5.800000000000000E+04,      /* I =  3 */
(PID.TID 0000.0001)      . . .
(PID.TID 0000.0001)                 2.008399999999994E+03,      /* I = 66 */
(PID.TID 0000.0001)                 2.008399999999994E+03,      /* I = 67 */
(PID.TID 0000.0001)                 2.008500000000000E+03,      /* I = 68 */
(PID.TID 0000.0001)                 2.008399999999994E+03,      /* I = 69 */
(PID.TID 0000.0001)                 2.008500000000000E+03,      /* I = 70 */
(PID.TID 0000.0001)                 2.008400000000009E+03,      /* I = 71 */
(PID.TID 0000.0001)      . . .
(PID.TID 0000.0001)                 2.008400000000001E+03,      /* I =134 */
(PID.TID 0000.0001)                 2.008500000000000E+03,      /* I =135 */
(PID.TID 0000.0001)                 2.008400000000000E+03,      /* I =136 */
(PID.TID 0000.0001)                 2.008500000000000E+03,      /* I =137 */
(PID.TID 0000.0001)                 2.008400000000001E+03,      /* I =138 */
(PID.TID 0000.0001)                 2.008400000000000E+03,      /* I =139 */
(PID.TID 0000.0001)      . . .
(PID.TID 0000.0001)                 2.008500000000000E+03,      /* I =202 */
(PID.TID 0000.0001)                 2.008399999999994E+03,      /* I =203 */
(PID.TID 0000.0001)                 2.008500000000000E+03,      /* I =204 */
(PID.TID 0000.0001)                 2.008399999999994E+03,      /* I =205 */
(PID.TID 0000.0001)                 2.008399999999994E+03,      /* I =206 */
(PID.TID 0000.0001)                 2.008500000000000E+03,      /* I =207 */
(PID.TID 0000.0001)      . . .
(PID.TID 0000.0001)                 6.200000000000000E+04,      /* I =270 */
(PID.TID 0000.0001)                 6.600000000000000E+04,      /* I =271 */
(PID.TID 0000.0001)                 6.600000000000000E+04       /* I =272 */
(PID.TID 0000.0001)     ;
(PID.TID 0000.0001) dxF =  /* dxF(1,:,1,:) ( units: m ) */
(PID.TID 0000.0001)   320 @  6.600000000000000E+04              /* J =  1:320 */
(PID.TID 0000.0001)     ;
(PID.TID 0000.0001) dyF =  /* dyF(:,1,:,1) ( units: m ) */
(PID.TID 0000.0001)   272 @  2.009400000000023E+03              /* I =  1:272 */
(PID.TID 0000.0001)     ;
(PID.TID 0000.0001) dyF =  /* dyF(1,:,1,:) ( units: m ) */
(PID.TID 0000.0001)                 2.009400000000023E+03,      /* J =  1 */
(PID.TID 0000.0001)                 2.009399999999965E+03,      /* J =  2 */
(PID.TID 0000.0001)                 2.009400000000023E+03,      /* J =  3 */
(PID.TID 0000.0001)      . . .
(PID.TID 0000.0001)                 2.009400000000023E+03,      /* J = 78 */
(PID.TID 0000.0001)                 2.009400000000023E+03,      /* J = 79 */
(PID.TID 0000.0001)                 2.009500000000000E+03,      /* J = 80 */
(PID.TID 0000.0001)                 2.009399999999965E+03,      /* J = 81 */
(PID.TID 0000.0001)                 2.009400000000023E+03,      /* J = 82 */
(PID.TID 0000.0001)                 2.009399999999965E+03,      /* J = 83 */
(PID.TID 0000.0001)      . . .
(PID.TID 0000.0001)                 2.009399999999994E+03,      /* J =158 */
(PID.TID 0000.0001)                 2.009399999999994E+03,      /* J =159 */
(PID.TID 0000.0001)                 2.009400000000023E+03,      /* J =160 */
(PID.TID 0000.0001)                 2.009399999999994E+03,      /* J =161 */
(PID.TID 0000.0001)                 2.009399999999994E+03,      /* J =162 */
(PID.TID 0000.0001)                 2.009399999999994E+03,      /* J =163 */
(PID.TID 0000.0001)      . . .
(PID.TID 0000.0001)                 2.009400000000001E+03,      /* J =238 */
(PID.TID 0000.0001)                 2.009399999999998E+03,      /* J =239 */
(PID.TID 0000.0001)                 2.009500000000000E+03,      /* J =240 */
(PID.TID 0000.0001)                 2.009400000000001E+03,      /* J =241 */
(PID.TID 0000.0001)                 2.009400000000000E+03,      /* J =242 */
(PID.TID 0000.0001)                 2.009400000000000E+03,      /* J =243 */
(PID.TID 0000.0001)      . . .
(PID.TID 0000.0001)                 2.009399999999994E+03,      /* J =318 */
(PID.TID 0000.0001)                 2.009399999999994E+03,      /* J =319 */
(PID.TID 0000.0001)                 2.009399999999994E+03       /* J =320 */
(PID.TID 0000.0001)     ;
(PID.TID 0000.0001) dxG =  /* dxG(:,1,:,1) ( units: m ) */
(PID.TID 0000.0001)                 6.600000000000000E+04,      /* I =  1 */
(PID.TID 0000.0001)                 6.200000000000000E+04,      /* I =  2 */
(PID.TID 0000.0001)                 5.800000000000000E+04,      /* I =  3 */
(PID.TID 0000.0001)      . . .
(PID.TID 0000.0001)                 2.008399999999994E+03,      /* I = 66 */
(PID.TID 0000.0001)                 2.008399999999994E+03,      /* I = 67 */
(PID.TID 0000.0001)                 2.008500000000000E+03,      /* I = 68 */
(PID.TID 0000.0001)                 2.008399999999994E+03,      /* I = 69 */
(PID.TID 0000.0001)                 2.008500000000000E+03,      /* I = 70 */
(PID.TID 0000.0001)                 2.008400000000009E+03,      /* I = 71 */
(PID.TID 0000.0001)      . . .
(PID.TID 0000.0001)                 2.008400000000001E+03,      /* I =134 */
(PID.TID 0000.0001)                 2.008500000000000E+03,      /* I =135 */
(PID.TID 0000.0001)                 2.008400000000000E+03,      /* I =136 */
(PID.TID 0000.0001)                 2.008500000000000E+03,      /* I =137 */
(PID.TID 0000.0001)                 2.008400000000001E+03,      /* I =138 */
(PID.TID 0000.0001)                 2.008400000000000E+03,      /* I =139 */
(PID.TID 0000.0001)      . . .
(PID.TID 0000.0001)                 2.008500000000000E+03,      /* I =202 */
(PID.TID 0000.0001)                 2.008399999999994E+03,      /* I =203 */
(PID.TID 0000.0001)                 2.008500000000000E+03,      /* I =204 */
(PID.TID 0000.0001)                 2.008399999999994E+03,      /* I =205 */
(PID.TID 0000.0001)                 2.008399999999994E+03,      /* I =206 */
(PID.TID 0000.0001)                 2.008500000000000E+03,      /* I =207 */
(PID.TID 0000.0001)      . . .
(PID.TID 0000.0001)                 6.200000000000000E+04,      /* I =270 */
(PID.TID 0000.0001)                 6.600000000000000E+04,      /* I =271 */
(PID.TID 0000.0001)                 6.600000000000000E+04       /* I =272 */
(PID.TID 0000.0001)     ;
(PID.TID 0000.0001) dxG =  /* dxG(1,:,1,:) ( units: m ) */
(PID.TID 0000.0001)   320 @  6.600000000000000E+04              /* J =  1:320 */
(PID.TID 0000.0001)     ;
(PID.TID 0000.0001) dyG =  /* dyG(:,1,:,1) ( units: m ) */
(PID.TID 0000.0001)   272 @  2.009400000000023E+03              /* I =  1:272 */
(PID.TID 0000.0001)     ;
(PID.TID 0000.0001) dyG =  /* dyG(1,:,1,:) ( units: m ) */
(PID.TID 0000.0001)                 2.009400000000023E+03,      /* J =  1 */
(PID.TID 0000.0001)                 2.009399999999965E+03,      /* J =  2 */
(PID.TID 0000.0001)                 2.009400000000023E+03,      /* J =  3 */
(PID.TID 0000.0001)      . . .
(PID.TID 0000.0001)                 2.009400000000023E+03,      /* J = 78 */
(PID.TID 0000.0001)                 2.009400000000023E+03,      /* J = 79 */
(PID.TID 0000.0001)                 2.009500000000000E+03,      /* J = 80 */
(PID.TID 0000.0001)                 2.009399999999965E+03,      /* J = 81 */
(PID.TID 0000.0001)                 2.009400000000023E+03,      /* J = 82 */
(PID.TID 0000.0001)                 2.009399999999965E+03,      /* J = 83 */
(PID.TID 0000.0001)      . . .
(PID.TID 0000.0001)                 2.009399999999994E+03,      /* J =158 */
(PID.TID 0000.0001)                 2.009399999999994E+03,      /* J =159 */
(PID.TID 0000.0001)                 2.009400000000023E+03,      /* J =160 */
(PID.TID 0000.0001)                 2.009399999999994E+03,      /* J =161 */
(PID.TID 0000.0001)                 2.009399999999994E+03,      /* J =162 */
(PID.TID 0000.0001)                 2.009399999999994E+03,      /* J =163 */
(PID.TID 0000.0001)      . . .
(PID.TID 0000.0001)                 2.009400000000001E+03,      /* J =238 */
(PID.TID 0000.0001)                 2.009399999999998E+03,      /* J =239 */
(PID.TID 0000.0001)                 2.009500000000000E+03,      /* J =240 */
(PID.TID 0000.0001)                 2.009400000000001E+03,      /* J =241 */
(PID.TID 0000.0001)                 2.009400000000000E+03,      /* J =242 */
(PID.TID 0000.0001)                 2.009400000000000E+03,      /* J =243 */
(PID.TID 0000.0001)      . . .
(PID.TID 0000.0001)                 2.009399999999994E+03,      /* J =318 */
(PID.TID 0000.0001)                 2.009399999999994E+03,      /* J =319 */
(PID.TID 0000.0001)                 2.009399999999994E+03       /* J =320 */
(PID.TID 0000.0001)     ;
(PID.TID 0000.0001) dxC =  /* dxC(:,1,:,1) ( units: m ) */
(PID.TID 0000.0001)                 6.600000000000000E+04,      /* I =  1 */
(PID.TID 0000.0001)                 6.400000000000000E+04,      /* I =  2 */
(PID.TID 0000.0001)                 6.000000000000000E+04,      /* I =  3 */
(PID.TID 0000.0001)      . . .
(PID.TID 0000.0001)                 2.008449999999997E+03,      /* I = 66 */
(PID.TID 0000.0001)                 2.008399999999994E+03,      /* I = 67 */
(PID.TID 0000.0001)                 2.008449999999997E+03,      /* I = 68 */
(PID.TID 0000.0001)                 2.008449999999997E+03,      /* I = 69 */
(PID.TID 0000.0001)                 2.008449999999997E+03,      /* I = 70 */
(PID.TID 0000.0001)                 2.008450000000004E+03,      /* I = 71 */
(PID.TID 0000.0001)      . . .
(PID.TID 0000.0001)                 2.008400000000000E+03,      /* I =134 */
(PID.TID 0000.0001)                 2.008450000000000E+03,      /* I =135 */
(PID.TID 0000.0001)                 2.008450000000000E+03,      /* I =136 */
(PID.TID 0000.0001)                 2.008450000000000E+03,      /* I =137 */
(PID.TID 0000.0001)                 2.008450000000000E+03,      /* I =138 */
(PID.TID 0000.0001)                 2.008400000000000E+03,      /* I =139 */
(PID.TID 0000.0001)      . . .
(PID.TID 0000.0001)                 2.008450000000004E+03,      /* I =202 */
(PID.TID 0000.0001)                 2.008449999999997E+03,      /* I =203 */
(PID.TID 0000.0001)                 2.008449999999997E+03,      /* I =204 */
(PID.TID 0000.0001)                 2.008449999999997E+03,      /* I =205 */
(PID.TID 0000.0001)                 2.008399999999994E+03,      /* I =206 */
(PID.TID 0000.0001)                 2.008449999999997E+03,      /* I =207 */
(PID.TID 0000.0001)      . . .
(PID.TID 0000.0001)                 6.000000000000000E+04,      /* I =270 */
(PID.TID 0000.0001)                 6.400000000000000E+04,      /* I =271 */
(PID.TID 0000.0001)                 6.600000000000000E+04       /* I =272 */
(PID.TID 0000.0001)     ;
(PID.TID 0000.0001) dxC =  /* dxC(1,:,1,:) ( units: m ) */
(PID.TID 0000.0001)   320 @  6.600000000000000E+04              /* J =  1:320 */
(PID.TID 0000.0001)     ;
(PID.TID 0000.0001) dyC =  /* dyC(:,1,:,1) ( units: m ) */
(PID.TID 0000.0001)   272 @  2.009400000000009E+03              /* I =  1:272 */
(PID.TID 0000.0001)     ;
(PID.TID 0000.0001) dyC =  /* dyC(1,:,1,:) ( units: m ) */
(PID.TID 0000.0001)                 2.009400000000009E+03,      /* J =  1 */
(PID.TID 0000.0001)                 2.009399999999994E+03,      /* J =  2 */
(PID.TID 0000.0001)                 2.009399999999994E+03,      /* J =  3 */
(PID.TID 0000.0001)      . . .
(PID.TID 0000.0001)                 2.009399999999994E+03,      /* J = 78 */
(PID.TID 0000.0001)                 2.009400000000023E+03,      /* J = 79 */
(PID.TID 0000.0001)                 2.009450000000012E+03,      /* J = 80 */
(PID.TID 0000.0001)                 2.009449999999983E+03,      /* J = 81 */
(PID.TID 0000.0001)                 2.009399999999994E+03,      /* J = 82 */
(PID.TID 0000.0001)                 2.009399999999994E+03,      /* J = 83 */
(PID.TID 0000.0001)      . . .
(PID.TID 0000.0001)                 2.009399999999994E+03,      /* J =158 */
(PID.TID 0000.0001)                 2.009399999999994E+03,      /* J =159 */
(PID.TID 0000.0001)                 2.009400000000009E+03,      /* J =160 */
(PID.TID 0000.0001)                 2.009400000000009E+03,      /* J =161 */
(PID.TID 0000.0001)                 2.009399999999994E+03,      /* J =162 */
(PID.TID 0000.0001)                 2.009399999999994E+03,      /* J =163 */
(PID.TID 0000.0001)      . . .
(PID.TID 0000.0001)                 2.009400000000000E+03,      /* J =238 */
(PID.TID 0000.0001)                 2.009400000000000E+03,      /* J =239 */
(PID.TID 0000.0001)                 2.009449999999999E+03,      /* J =240 */
(PID.TID 0000.0001)                 2.009450000000001E+03,      /* J =241 */
(PID.TID 0000.0001)                 2.009400000000001E+03,      /* J =242 */
(PID.TID 0000.0001)                 2.009400000000000E+03,      /* J =243 */
(PID.TID 0000.0001)      . . .
(PID.TID 0000.0001)                 2.009400000000009E+03,      /* J =318 */
(PID.TID 0000.0001)                 2.009399999999994E+03,      /* J =319 */
(PID.TID 0000.0001)                 2.009399999999994E+03       /* J =320 */
(PID.TID 0000.0001)     ;
(PID.TID 0000.0001) dxV =  /* dxV(:,1,:,1) ( units: m ) */
(PID.TID 0000.0001)                 6.600000000000000E+04,      /* I =  1 */
(PID.TID 0000.0001)                 6.400000000000000E+04,      /* I =  2 */
(PID.TID 0000.0001)                 6.000000000000000E+04,      /* I =  3 */
(PID.TID 0000.0001)      . . .
(PID.TID 0000.0001)                 2.008449999999997E+03,      /* I = 66 */
(PID.TID 0000.0001)                 2.008399999999994E+03,      /* I = 67 */
(PID.TID 0000.0001)                 2.008449999999997E+03,      /* I = 68 */
(PID.TID 0000.0001)                 2.008449999999997E+03,      /* I = 69 */
(PID.TID 0000.0001)                 2.008449999999997E+03,      /* I = 70 */
(PID.TID 0000.0001)                 2.008450000000004E+03,      /* I = 71 */
(PID.TID 0000.0001)      . . .
(PID.TID 0000.0001)                 2.008400000000000E+03,      /* I =134 */
(PID.TID 0000.0001)                 2.008450000000000E+03,      /* I =135 */
(PID.TID 0000.0001)                 2.008450000000000E+03,      /* I =136 */
(PID.TID 0000.0001)                 2.008450000000000E+03,      /* I =137 */
(PID.TID 0000.0001)                 2.008450000000000E+03,      /* I =138 */
(PID.TID 0000.0001)                 2.008400000000000E+03,      /* I =139 */
(PID.TID 0000.0001)      . . .
(PID.TID 0000.0001)                 2.008450000000004E+03,      /* I =202 */
(PID.TID 0000.0001)                 2.008449999999997E+03,      /* I =203 */
(PID.TID 0000.0001)                 2.008449999999997E+03,      /* I =204 */
(PID.TID 0000.0001)                 2.008449999999997E+03,      /* I =205 */
(PID.TID 0000.0001)                 2.008399999999994E+03,      /* I =206 */
(PID.TID 0000.0001)                 2.008449999999997E+03,      /* I =207 */
(PID.TID 0000.0001)      . . .
(PID.TID 0000.0001)                 6.000000000000000E+04,      /* I =270 */
(PID.TID 0000.0001)                 6.400000000000000E+04,      /* I =271 */
(PID.TID 0000.0001)                 6.600000000000000E+04       /* I =272 */
(PID.TID 0000.0001)     ;
(PID.TID 0000.0001) dxV =  /* dxV(1,:,1,:) ( units: m ) */
(PID.TID 0000.0001)   320 @  6.600000000000000E+04              /* J =  1:320 */
(PID.TID 0000.0001)     ;
(PID.TID 0000.0001) dyU =  /* dyU(:,1,:,1) ( units: m ) */
(PID.TID 0000.0001)   272 @  2.009400000000009E+03              /* I =  1:272 */
(PID.TID 0000.0001)     ;
(PID.TID 0000.0001) dyU =  /* dyU(1,:,1,:) ( units: m ) */
(PID.TID 0000.0001)                 2.009400000000009E+03,      /* J =  1 */
(PID.TID 0000.0001)                 2.009399999999994E+03,      /* J =  2 */
(PID.TID 0000.0001)                 2.009399999999994E+03,      /* J =  3 */
(PID.TID 0000.0001)      . . .
(PID.TID 0000.0001)                 2.009399999999994E+03,      /* J = 78 */
(PID.TID 0000.0001)                 2.009400000000023E+03,      /* J = 79 */
(PID.TID 0000.0001)                 2.009450000000012E+03,      /* J = 80 */
(PID.TID 0000.0001)                 2.009449999999983E+03,      /* J = 81 */
(PID.TID 0000.0001)                 2.009399999999994E+03,      /* J = 82 */
(PID.TID 0000.0001)                 2.009399999999994E+03,      /* J = 83 */
(PID.TID 0000.0001)      . . .
(PID.TID 0000.0001)                 2.009399999999994E+03,      /* J =158 */
(PID.TID 0000.0001)                 2.009399999999994E+03,      /* J =159 */
(PID.TID 0000.0001)                 2.009400000000009E+03,      /* J =160 */
(PID.TID 0000.0001)                 2.009400000000009E+03,      /* J =161 */
(PID.TID 0000.0001)                 2.009399999999994E+03,      /* J =162 */
(PID.TID 0000.0001)                 2.009399999999994E+03,      /* J =163 */
(PID.TID 0000.0001)      . . .
(PID.TID 0000.0001)                 2.009400000000000E+03,      /* J =238 */
(PID.TID 0000.0001)                 2.009400000000000E+03,      /* J =239 */
(PID.TID 0000.0001)                 2.009449999999999E+03,      /* J =240 */
(PID.TID 0000.0001)                 2.009450000000001E+03,      /* J =241 */
(PID.TID 0000.0001)                 2.009400000000001E+03,      /* J =242 */
(PID.TID 0000.0001)                 2.009400000000000E+03,      /* J =243 */
(PID.TID 0000.0001)      . . .
(PID.TID 0000.0001)                 2.009400000000009E+03,      /* J =318 */
(PID.TID 0000.0001)                 2.009399999999994E+03,      /* J =319 */
(PID.TID 0000.0001)                 2.009399999999994E+03       /* J =320 */
(PID.TID 0000.0001)     ;
(PID.TID 0000.0001) rA  =  /* rA (:,1,:,1) ( units: m^2 ) */
(PID.TID 0000.0001)                 1.326204000000015E+08,      /* I =  1 */
(PID.TID 0000.0001)                 1.245828000000014E+08,      /* I =  2 */
(PID.TID 0000.0001)                 1.165452000000014E+08,      /* I =  3 */
(PID.TID 0000.0001)      . . .
(PID.TID 0000.0001)                 4.035678960000035E+06,      /* I = 66 */
(PID.TID 0000.0001)                 4.035678960000035E+06,      /* I = 67 */
(PID.TID 0000.0001)                 4.035879900000047E+06,      /* I = 68 */
(PID.TID 0000.0001)                 4.035678960000035E+06,      /* I = 69 */
(PID.TID 0000.0001)                 4.035879900000047E+06,      /* I = 70 */
(PID.TID 0000.0001)                 4.035678960000064E+06,      /* I = 71 */
(PID.TID 0000.0001)      . . .
(PID.TID 0000.0001)                 4.035678960000048E+06,      /* I =134 */
(PID.TID 0000.0001)                 4.035879900000046E+06,      /* I =135 */
(PID.TID 0000.0001)                 4.035678960000047E+06,      /* I =136 */
(PID.TID 0000.0001)                 4.035879900000046E+06,      /* I =137 */
(PID.TID 0000.0001)                 4.035678960000048E+06,      /* I =138 */
(PID.TID 0000.0001)                 4.035678960000046E+06,      /* I =139 */
(PID.TID 0000.0001)      . . .
(PID.TID 0000.0001)                 4.035879900000047E+06,      /* I =202 */
(PID.TID 0000.0001)                 4.035678960000035E+06,      /* I =203 */
(PID.TID 0000.0001)                 4.035879900000047E+06,      /* I =204 */
(PID.TID 0000.0001)                 4.035678960000035E+06,      /* I =205 */
(PID.TID 0000.0001)                 4.035678960000035E+06,      /* I =206 */
(PID.TID 0000.0001)                 4.035879900000047E+06,      /* I =207 */
(PID.TID 0000.0001)      . . .
(PID.TID 0000.0001)                 1.245828000000014E+08,      /* I =270 */
(PID.TID 0000.0001)                 1.326204000000015E+08,      /* I =271 */
(PID.TID 0000.0001)                 1.326204000000015E+08       /* I =272 */
(PID.TID 0000.0001)     ;
(PID.TID 0000.0001) rA  =  /* rA (1,:,1,:) ( units: m^2 ) */
(PID.TID 0000.0001)                 1.326204000000015E+08,      /* J =  1 */
(PID.TID 0000.0001)                 1.326203999999977E+08,      /* J =  2 */
(PID.TID 0000.0001)                 1.326204000000015E+08,      /* J =  3 */
(PID.TID 0000.0001)      . . .
(PID.TID 0000.0001)                 1.326204000000015E+08,      /* J = 78 */
(PID.TID 0000.0001)                 1.326204000000015E+08,      /* J = 79 */
(PID.TID 0000.0001)                 1.326270000000000E+08,      /* J = 80 */
(PID.TID 0000.0001)                 1.326203999999977E+08,      /* J = 81 */
(PID.TID 0000.0001)                 1.326204000000015E+08,      /* J = 82 */
(PID.TID 0000.0001)                 1.326203999999977E+08,      /* J = 83 */
(PID.TID 0000.0001)      . . .
(PID.TID 0000.0001)                 1.326203999999996E+08,      /* J =158 */
(PID.TID 0000.0001)                 1.326203999999996E+08,      /* J =159 */
(PID.TID 0000.0001)                 1.326204000000015E+08,      /* J =160 */
(PID.TID 0000.0001)                 1.326203999999996E+08,      /* J =161 */
(PID.TID 0000.0001)                 1.326203999999996E+08,      /* J =162 */
(PID.TID 0000.0001)                 1.326203999999996E+08,      /* J =163 */
(PID.TID 0000.0001)      . . .
(PID.TID 0000.0001)                 1.326204000000001E+08,      /* J =238 */
(PID.TID 0000.0001)                 1.326203999999999E+08,      /* J =239 */
(PID.TID 0000.0001)                 1.326270000000000E+08,      /* J =240 */
(PID.TID 0000.0001)                 1.326204000000001E+08,      /* J =241 */
(PID.TID 0000.0001)                 1.326204000000000E+08,      /* J =242 */
(PID.TID 0000.0001)                 1.326204000000000E+08,      /* J =243 */
(PID.TID 0000.0001)      . . .
(PID.TID 0000.0001)                 1.326203999999996E+08,      /* J =318 */
(PID.TID 0000.0001)                 1.326203999999996E+08,      /* J =319 */
(PID.TID 0000.0001)                 1.326203999999996E+08       /* J =320 */
(PID.TID 0000.0001)     ;
(PID.TID 0000.0001) rAw =  /* rAw(:,1,:,1) ( units: m^2 ) */
(PID.TID 0000.0001)                 1.326204000000015E+08,      /* I =  1 */
(PID.TID 0000.0001)                 1.286016000000015E+08,      /* I =  2 */
(PID.TID 0000.0001)                 1.205640000000014E+08,      /* I =  3 */
(PID.TID 0000.0001)      . . .
(PID.TID 0000.0001)                 4.035779430000041E+06,      /* I = 66 */
(PID.TID 0000.0001)                 4.035678960000035E+06,      /* I = 67 */
(PID.TID 0000.0001)                 4.035779430000041E+06,      /* I = 68 */
(PID.TID 0000.0001)                 4.035779430000041E+06,      /* I = 69 */
(PID.TID 0000.0001)                 4.035779430000041E+06,      /* I = 70 */
(PID.TID 0000.0001)                 4.035779430000056E+06,      /* I = 71 */
(PID.TID 0000.0001)      . . .
(PID.TID 0000.0001)                 4.035678960000047E+06,      /* I =134 */
(PID.TID 0000.0001)                 4.035779430000047E+06,      /* I =135 */
(PID.TID 0000.0001)                 4.035779430000046E+06,      /* I =136 */
(PID.TID 0000.0001)                 4.035779430000046E+06,      /* I =137 */
(PID.TID 0000.0001)                 4.035779430000047E+06,      /* I =138 */
(PID.TID 0000.0001)                 4.035678960000047E+06,      /* I =139 */
(PID.TID 0000.0001)      . . .
(PID.TID 0000.0001)                 4.035779430000056E+06,      /* I =202 */
(PID.TID 0000.0001)                 4.035779430000041E+06,      /* I =203 */
(PID.TID 0000.0001)                 4.035779430000041E+06,      /* I =204 */
(PID.TID 0000.0001)                 4.035779430000041E+06,      /* I =205 */
(PID.TID 0000.0001)                 4.035678960000035E+06,      /* I =206 */
(PID.TID 0000.0001)                 4.035779430000041E+06,      /* I =207 */
(PID.TID 0000.0001)      . . .
(PID.TID 0000.0001)                 1.205640000000014E+08,      /* I =270 */
(PID.TID 0000.0001)                 1.286016000000015E+08,      /* I =271 */
(PID.TID 0000.0001)                 1.326204000000015E+08       /* I =272 */
(PID.TID 0000.0001)     ;
(PID.TID 0000.0001) rAw =  /* rAw(1,:,1,:) ( units: m^2 ) */
(PID.TID 0000.0001)                 1.326204000000015E+08,      /* J =  1 */
(PID.TID 0000.0001)                 1.326203999999977E+08,      /* J =  2 */
(PID.TID 0000.0001)                 1.326204000000015E+08,      /* J =  3 */
(PID.TID 0000.0001)      . . .
(PID.TID 0000.0001)                 1.326204000000015E+08,      /* J = 78 */
(PID.TID 0000.0001)                 1.326204000000015E+08,      /* J = 79 */
(PID.TID 0000.0001)                 1.326270000000000E+08,      /* J = 80 */
(PID.TID 0000.0001)                 1.326203999999977E+08,      /* J = 81 */
(PID.TID 0000.0001)                 1.326204000000015E+08,      /* J = 82 */
(PID.TID 0000.0001)                 1.326203999999977E+08,      /* J = 83 */
(PID.TID 0000.0001)      . . .
(PID.TID 0000.0001)                 1.326203999999996E+08,      /* J =158 */
(PID.TID 0000.0001)                 1.326203999999996E+08,      /* J =159 */
(PID.TID 0000.0001)                 1.326204000000015E+08,      /* J =160 */
(PID.TID 0000.0001)                 1.326203999999996E+08,      /* J =161 */
(PID.TID 0000.0001)                 1.326203999999996E+08,      /* J =162 */
(PID.TID 0000.0001)                 1.326203999999996E+08,      /* J =163 */
(PID.TID 0000.0001)      . . .
(PID.TID 0000.0001)                 1.326204000000001E+08,      /* J =238 */
(PID.TID 0000.0001)                 1.326203999999999E+08,      /* J =239 */
(PID.TID 0000.0001)                 1.326270000000000E+08,      /* J =240 */
(PID.TID 0000.0001)                 1.326204000000001E+08,      /* J =241 */
(PID.TID 0000.0001)                 1.326204000000000E+08,      /* J =242 */
(PID.TID 0000.0001)                 1.326204000000000E+08,      /* J =243 */
(PID.TID 0000.0001)      . . .
(PID.TID 0000.0001)                 1.326203999999996E+08,      /* J =318 */
(PID.TID 0000.0001)                 1.326203999999996E+08,      /* J =319 */
(PID.TID 0000.0001)                 1.326203999999996E+08       /* J =320 */
(PID.TID 0000.0001)     ;
(PID.TID 0000.0001) rAs =  /* rAs(:,1,:,1) ( units: m^2 ) */
(PID.TID 0000.0001)                 1.326204000000006E+08,      /* I =  1 */
(PID.TID 0000.0001)                 1.245828000000005E+08,      /* I =  2 */
(PID.TID 0000.0001)                 1.165452000000005E+08,      /* I =  3 */
(PID.TID 0000.0001)      . . .
(PID.TID 0000.0001)                 4.035678960000006E+06,      /* I = 66 */
(PID.TID 0000.0001)                 4.035678960000006E+06,      /* I = 67 */
(PID.TID 0000.0001)                 4.035879900000018E+06,      /* I = 68 */
(PID.TID 0000.0001)                 4.035678960000006E+06,      /* I = 69 */
(PID.TID 0000.0001)                 4.035879900000018E+06,      /* I = 70 */
(PID.TID 0000.0001)                 4.035678960000035E+06,      /* I = 71 */
(PID.TID 0000.0001)      . . .
(PID.TID 0000.0001)                 4.035678960000019E+06,      /* I =134 */
(PID.TID 0000.0001)                 4.035879900000017E+06,      /* I =135 */
(PID.TID 0000.0001)                 4.035678960000018E+06,      /* I =136 */
(PID.TID 0000.0001)                 4.035879900000017E+06,      /* I =137 */
(PID.TID 0000.0001)                 4.035678960000019E+06,      /* I =138 */
(PID.TID 0000.0001)                 4.035678960000017E+06,      /* I =139 */
(PID.TID 0000.0001)      . . .
(PID.TID 0000.0001)                 4.035879900000018E+06,      /* I =202 */
(PID.TID 0000.0001)                 4.035678960000006E+06,      /* I =203 */
(PID.TID 0000.0001)                 4.035879900000018E+06,      /* I =204 */
(PID.TID 0000.0001)                 4.035678960000006E+06,      /* I =205 */
(PID.TID 0000.0001)                 4.035678960000006E+06,      /* I =206 */
(PID.TID 0000.0001)                 4.035879900000018E+06,      /* I =207 */
(PID.TID 0000.0001)      . . .
(PID.TID 0000.0001)                 1.245828000000005E+08,      /* I =270 */
(PID.TID 0000.0001)                 1.326204000000006E+08,      /* I =271 */
(PID.TID 0000.0001)                 1.326204000000006E+08       /* I =272 */
(PID.TID 0000.0001)     ;
(PID.TID 0000.0001) rAs =  /* rAs(1,:,1,:) ( units: m^2 ) */
(PID.TID 0000.0001)                 1.326204000000006E+08,      /* J =  1 */
(PID.TID 0000.0001)                 1.326203999999996E+08,      /* J =  2 */
(PID.TID 0000.0001)                 1.326203999999996E+08,      /* J =  3 */
(PID.TID 0000.0001)      . . .
(PID.TID 0000.0001)                 1.326203999999996E+08,      /* J = 78 */
(PID.TID 0000.0001)                 1.326204000000015E+08,      /* J = 79 */
(PID.TID 0000.0001)                 1.326237000000008E+08,      /* J = 80 */
(PID.TID 0000.0001)                 1.326236999999989E+08,      /* J = 81 */
(PID.TID 0000.0001)                 1.326203999999996E+08,      /* J = 82 */
(PID.TID 0000.0001)                 1.326203999999996E+08,      /* J = 83 */
(PID.TID 0000.0001)      . . .
(PID.TID 0000.0001)                 1.326203999999996E+08,      /* J =158 */
(PID.TID 0000.0001)                 1.326203999999996E+08,      /* J =159 */
(PID.TID 0000.0001)                 1.326204000000006E+08,      /* J =160 */
(PID.TID 0000.0001)                 1.326204000000006E+08,      /* J =161 */
(PID.TID 0000.0001)                 1.326203999999996E+08,      /* J =162 */
(PID.TID 0000.0001)                 1.326203999999996E+08,      /* J =163 */
(PID.TID 0000.0001)      . . .
(PID.TID 0000.0001)                 1.326204000000000E+08,      /* J =238 */
(PID.TID 0000.0001)                 1.326204000000000E+08,      /* J =239 */
(PID.TID 0000.0001)                 1.326236999999999E+08,      /* J =240 */
(PID.TID 0000.0001)                 1.326237000000000E+08,      /* J =241 */
(PID.TID 0000.0001)                 1.326204000000000E+08,      /* J =242 */
(PID.TID 0000.0001)                 1.326204000000000E+08,      /* J =243 */
(PID.TID 0000.0001)      . . .
(PID.TID 0000.0001)                 1.326204000000006E+08,      /* J =318 */
(PID.TID 0000.0001)                 1.326203999999996E+08,      /* J =319 */
(PID.TID 0000.0001)                 1.326203999999996E+08       /* J =320 */
(PID.TID 0000.0001)     ;
(PID.TID 0000.0001) globalArea = /* Integrated horizontal Area (m^2) */
(PID.TID 0000.0001)                 8.845207557303589E+11
(PID.TID 0000.0001)     ;
(PID.TID 0000.0001) // =======================================================
(PID.TID 0000.0001) // End of Model config. summary
(PID.TID 0000.0001) // =======================================================
(PID.TID 0000.0001) 
(PID.TID 0000.0001) == Packages configuration : Check & print summary ==
(PID.TID 0000.0001) 
(PID.TID 0000.0001) OBCS_CHECK: #define ALLOW_OBCS
(PID.TID 0000.0001) // =======================================================
(PID.TID 0000.0001) // OBCS_CHECK: OBCS configuration summary
(PID.TID 0000.0001) // =======================================================
(PID.TID 0000.0001) 
(PID.TID 0000.0001) useOBCSprescribe = /* prescribe OB values */
(PID.TID 0000.0001)                   F
(PID.TID 0000.0001)     ;
(PID.TID 0000.0001) useOBCSbalance = /* balance the flow through OB */
(PID.TID 0000.0001)                   T
(PID.TID 0000.0001)     ;
(PID.TID 0000.0001) OBCSbalanceSurf = /* include surf. flux in balance */
(PID.TID 0000.0001)                   F
(PID.TID 0000.0001)     ;
(PID.TID 0000.0001) OBCS_balanceFacN = /* Northern OB Factor for balancing OB flow [-] */
(PID.TID 0000.0001)                 1.000000000000000E+00
(PID.TID 0000.0001)     ;
(PID.TID 0000.0001) OBCS_balanceFacS = /* Southern OB Factor for balancing OB flow [-] */
(PID.TID 0000.0001)                 1.000000000000000E+00
(PID.TID 0000.0001)     ;
(PID.TID 0000.0001) OBCS_balanceFacE = /* Eastern  OB Factor for balancing OB flow [-] */
(PID.TID 0000.0001)                 1.000000000000000E+00
(PID.TID 0000.0001)     ;
(PID.TID 0000.0001) OBCS_balanceFacW = /* Western  OB Factor for balancing OB flow [-] */
(PID.TID 0000.0001)                 1.000000000000000E+00
(PID.TID 0000.0001)     ;
(PID.TID 0000.0001) OBCSfixTopo =  /* mod. topo to have zero gradient across boundaries. */
(PID.TID 0000.0001)                   F
(PID.TID 0000.0001)     ;
(PID.TID 0000.0001) OBCS_uvApplyFac = /* Factor to apply to U,V 2nd column/row */
(PID.TID 0000.0001)                 1.000000000000000E+00
(PID.TID 0000.0001)     ;
(PID.TID 0000.0001) OBCS_u1_adv_T = /* Temp uses upwind adv-scheme @ OB */
(PID.TID 0000.0001)                       0
(PID.TID 0000.0001)     ;
(PID.TID 0000.0001) OBCS_u1_adv_S = /* Salt uses upwind adv-scheme @ OB */
(PID.TID 0000.0001)                       0
(PID.TID 0000.0001)     ;
(PID.TID 0000.0001) OBCS_monitorFreq = /* monitor output frequency [s] */
(PID.TID 0000.0001)                 1.200000000000000E+03
(PID.TID 0000.0001)     ;
(PID.TID 0000.0001) OBCS_monSelect = /* select group of variables to monitor */
(PID.TID 0000.0001)                       0
(PID.TID 0000.0001)     ;
(PID.TID 0000.0001) OBCSprintDiags =  /* print some OBCS diagnostics. */
(PID.TID 0000.0001)                   F
(PID.TID 0000.0001)     ;
(PID.TID 0000.0001) useOBCStides = /* apply tidal forcing through OB */
(PID.TID 0000.0001)                   F
(PID.TID 0000.0001)     ;
(PID.TID 0000.0001) useOrlanskiNorth =  /* use Orlanski for northern bound. */
(PID.TID 0000.0001)                   F
(PID.TID 0000.0001)     ;
(PID.TID 0000.0001) useOrlanskiSouth =  /* use Orlanski for southern bound. */
(PID.TID 0000.0001)                   T
(PID.TID 0000.0001)     ;
(PID.TID 0000.0001) useOrlanskiEast  =  /* use Orlanski for eastern bound. */
(PID.TID 0000.0001)                   F
(PID.TID 0000.0001)     ;
(PID.TID 0000.0001) useOrlanskiWest  =  /* use Orlanski for western bound. */
(PID.TID 0000.0001)                   F
(PID.TID 0000.0001)     ;
(PID.TID 0000.0001) useStevensNorth =  /* use Stevens for northern bound. */
(PID.TID 0000.0001)                   F
(PID.TID 0000.0001)     ;
(PID.TID 0000.0001) useStevensSouth =  /* use Stevens for southern bound. */
(PID.TID 0000.0001)                   F
(PID.TID 0000.0001)     ;
(PID.TID 0000.0001) useStevensEast  =  /* use Stevens for eastern bound. */
(PID.TID 0000.0001)                   F
(PID.TID 0000.0001)     ;
(PID.TID 0000.0001) useStevensWest  =  /* use Stevens for western bound. */
(PID.TID 0000.0001)                   F
(PID.TID 0000.0001)     ;
(PID.TID 0000.0001) useStevensPhaseVel  =  /* include phase vel. term. */
(PID.TID 0000.0001)                   T
(PID.TID 0000.0001)     ;
(PID.TID 0000.0001) useStevensAdvection  =  /* include advection term. */
(PID.TID 0000.0001)                   T
(PID.TID 0000.0001)     ;
(PID.TID 0000.0001) TrelaxStevens = /* relaxation time scale for theta ( s ). */
(PID.TID 0000.0001)                 0.000000000000000E+00
(PID.TID 0000.0001)     ;
(PID.TID 0000.0001) SrelaxStevens = /* relaxation time scale for salinity ( s ). */
(PID.TID 0000.0001)                 0.000000000000000E+00
(PID.TID 0000.0001)     ;
(PID.TID 0000.0001) useOBCSSponge =  /* use sponge along boundaries */
(PID.TID 0000.0001)                   F
(PID.TID 0000.0001)     ;
(PID.TID 0000.0001) useSeaiceSponge =  /* use sponge for sea ice variables */
(PID.TID 0000.0001)                   F
(PID.TID 0000.0001)     ;
(PID.TID 0000.0001) useSeaiceNeumann =  /* use Neumann conditions for sea ice variables */
(PID.TID 0000.0001)                   F
(PID.TID 0000.0001)     ;
(PID.TID 0000.0001) OB_indexNone = /* null value for OB index (i.e. no OB) */
(PID.TID 0000.0001)                     -99
(PID.TID 0000.0001)     ;
(PID.TID 0000.0001) ======== Tile bi=   1 , bj=   1 ========
(PID.TID 0000.0001)  OB_Jn = /* Northern OB local indices */
(PID.TID 0000.0001)    23 @      -99                            /* I = -2: 20 */
(PID.TID 0000.0001)  OB_Js = /* Southern OB local indices */
(PID.TID 0000.0001)    23 @        1                            /* I = -2: 20 */
(PID.TID 0000.0001)  OB_Ie = /* Eastern OB local indices */
(PID.TID 0000.0001)    26 @      -99                            /* J = -2: 23 */
(PID.TID 0000.0001)  OB_Iw = /* Western OB local indices */
(PID.TID 0000.0001)    26 @      -99                            /* J = -2: 23 */
(PID.TID 0000.0001) ======== Tile bi=   2 , bj=   1 ========
(PID.TID 0000.0001)  OB_Jn = /* Northern OB local indices */
(PID.TID 0000.0001)    23 @      -99                            /* I = -2: 20 */
(PID.TID 0000.0001)  OB_Js = /* Southern OB local indices */
(PID.TID 0000.0001)    23 @        1                            /* I = -2: 20 */
(PID.TID 0000.0001)  OB_Ie = /* Eastern OB local indices */
(PID.TID 0000.0001)    26 @      -99                            /* J = -2: 23 */
(PID.TID 0000.0001)  OB_Iw = /* Western OB local indices */
(PID.TID 0000.0001)    26 @      -99                            /* J = -2: 23 */
(PID.TID 0000.0001) ======== Tile bi=   3 , bj=   1 ========
(PID.TID 0000.0001)  OB_Jn = /* Northern OB local indices */
(PID.TID 0000.0001)    23 @      -99                            /* I = -2: 20 */
(PID.TID 0000.0001)  OB_Js = /* Southern OB local indices */
(PID.TID 0000.0001)    23 @        1                            /* I = -2: 20 */
(PID.TID 0000.0001)  OB_Ie = /* Eastern OB local indices */
(PID.TID 0000.0001)    26 @      -99                            /* J = -2: 23 */
(PID.TID 0000.0001)  OB_Iw = /* Western OB local indices */
(PID.TID 0000.0001)    26 @      -99                            /* J = -2: 23 */
(PID.TID 0000.0001) ======== Tile bi=   4 , bj=   1 ========
(PID.TID 0000.0001)  OB_Jn = /* Northern OB local indices */
(PID.TID 0000.0001)    23 @      -99                            /* I = -2: 20 */
(PID.TID 0000.0001)  OB_Js = /* Southern OB local indices */
(PID.TID 0000.0001)    23 @        1                            /* I = -2: 20 */
(PID.TID 0000.0001)  OB_Ie = /* Eastern OB local indices */
(PID.TID 0000.0001)    26 @      -99                            /* J = -2: 23 */
(PID.TID 0000.0001)  OB_Iw = /* Western OB local indices */
(PID.TID 0000.0001)    26 @      -99                            /* J = -2: 23 */
(PID.TID 0000.0001) ======== Tile bi=   5 , bj=   1 ========
(PID.TID 0000.0001)  OB_Jn = /* Northern OB local indices */
(PID.TID 0000.0001)    23 @      -99                            /* I = -2: 20 */
(PID.TID 0000.0001)  OB_Js = /* Southern OB local indices */
(PID.TID 0000.0001)    23 @        1                            /* I = -2: 20 */
(PID.TID 0000.0001)  OB_Ie = /* Eastern OB local indices */
(PID.TID 0000.0001)    26 @      -99                            /* J = -2: 23 */
(PID.TID 0000.0001)  OB_Iw = /* Western OB local indices */
(PID.TID 0000.0001)    26 @      -99                            /* J = -2: 23 */
(PID.TID 0000.0001) ======== Tile bi=   6 , bj=   1 ========
(PID.TID 0000.0001)  OB_Jn = /* Northern OB local indices */
(PID.TID 0000.0001)    23 @      -99                            /* I = -2: 20 */
(PID.TID 0000.0001)  OB_Js = /* Southern OB local indices */
(PID.TID 0000.0001)    23 @        1                            /* I = -2: 20 */
(PID.TID 0000.0001)  OB_Ie = /* Eastern OB local indices */
(PID.TID 0000.0001)    26 @      -99                            /* J = -2: 23 */
(PID.TID 0000.0001)  OB_Iw = /* Western OB local indices */
(PID.TID 0000.0001)    26 @      -99                            /* J = -2: 23 */
(PID.TID 0000.0001) ======== Tile bi=   7 , bj=   1 ========
(PID.TID 0000.0001)  OB_Jn = /* Northern OB local indices */
(PID.TID 0000.0001)    23 @      -99                            /* I = -2: 20 */
(PID.TID 0000.0001)  OB_Js = /* Southern OB local indices */
(PID.TID 0000.0001)    23 @        1                            /* I = -2: 20 */
(PID.TID 0000.0001)  OB_Ie = /* Eastern OB local indices */
(PID.TID 0000.0001)    26 @      -99                            /* J = -2: 23 */
(PID.TID 0000.0001)  OB_Iw = /* Western OB local indices */
(PID.TID 0000.0001)    26 @      -99                            /* J = -2: 23 */
(PID.TID 0000.0001) ======== Tile bi=   8 , bj=   1 ========
(PID.TID 0000.0001)  OB_Jn = /* Northern OB local indices */
(PID.TID 0000.0001)    23 @      -99                            /* I = -2: 20 */
(PID.TID 0000.0001)  OB_Js = /* Southern OB local indices */
(PID.TID 0000.0001)    23 @        1                            /* I = -2: 20 */
(PID.TID 0000.0001)  OB_Ie = /* Eastern OB local indices */
(PID.TID 0000.0001)    26 @      -99                            /* J = -2: 23 */
(PID.TID 0000.0001)  OB_Iw = /* Western OB local indices */
(PID.TID 0000.0001)    26 @      -99                            /* J = -2: 23 */
(PID.TID 0000.0001) ======== Tile bi=   9 , bj=   1 ========
(PID.TID 0000.0001)  OB_Jn = /* Northern OB local indices */
(PID.TID 0000.0001)    23 @      -99                            /* I = -2: 20 */
(PID.TID 0000.0001)  OB_Js = /* Southern OB local indices */
(PID.TID 0000.0001)    23 @        1                            /* I = -2: 20 */
(PID.TID 0000.0001)  OB_Ie = /* Eastern OB local indices */
(PID.TID 0000.0001)    26 @      -99                            /* J = -2: 23 */
(PID.TID 0000.0001)  OB_Iw = /* Western OB local indices */
(PID.TID 0000.0001)    26 @      -99                            /* J = -2: 23 */
(PID.TID 0000.0001) ======== Tile bi=  10 , bj=   1 ========
(PID.TID 0000.0001)  OB_Jn = /* Northern OB local indices */
(PID.TID 0000.0001)    23 @      -99                            /* I = -2: 20 */
(PID.TID 0000.0001)  OB_Js = /* Southern OB local indices */
(PID.TID 0000.0001)    23 @        1                            /* I = -2: 20 */
(PID.TID 0000.0001)  OB_Ie = /* Eastern OB local indices */
(PID.TID 0000.0001)    26 @      -99                            /* J = -2: 23 */
(PID.TID 0000.0001)  OB_Iw = /* Western OB local indices */
(PID.TID 0000.0001)    26 @      -99                            /* J = -2: 23 */
(PID.TID 0000.0001) ======== Tile bi=  11 , bj=   1 ========
(PID.TID 0000.0001)  OB_Jn = /* Northern OB local indices */
(PID.TID 0000.0001)    23 @      -99                            /* I = -2: 20 */
(PID.TID 0000.0001)  OB_Js = /* Southern OB local indices */
(PID.TID 0000.0001)    23 @        1                            /* I = -2: 20 */
(PID.TID 0000.0001)  OB_Ie = /* Eastern OB local indices */
(PID.TID 0000.0001)    26 @      -99                            /* J = -2: 23 */
(PID.TID 0000.0001)  OB_Iw = /* Western OB local indices */
(PID.TID 0000.0001)    26 @      -99                            /* J = -2: 23 */
(PID.TID 0000.0001) ======== Tile bi=  12 , bj=   1 ========
(PID.TID 0000.0001)  OB_Jn = /* Northern OB local indices */
(PID.TID 0000.0001)    23 @      -99                            /* I = -2: 20 */
(PID.TID 0000.0001)  OB_Js = /* Southern OB local indices */
(PID.TID 0000.0001)    23 @        1                            /* I = -2: 20 */
(PID.TID 0000.0001)  OB_Ie = /* Eastern OB local indices */
(PID.TID 0000.0001)    26 @      -99                            /* J = -2: 23 */
(PID.TID 0000.0001)  OB_Iw = /* Western OB local indices */
(PID.TID 0000.0001)    26 @      -99                            /* J = -2: 23 */
(PID.TID 0000.0001) ======== Tile bi=  13 , bj=   1 ========
(PID.TID 0000.0001)  OB_Jn = /* Northern OB local indices */
(PID.TID 0000.0001)    23 @      -99                            /* I = -2: 20 */
(PID.TID 0000.0001)  OB_Js = /* Southern OB local indices */
(PID.TID 0000.0001)    23 @        1                            /* I = -2: 20 */
(PID.TID 0000.0001)  OB_Ie = /* Eastern OB local indices */
(PID.TID 0000.0001)    26 @      -99                            /* J = -2: 23 */
(PID.TID 0000.0001)  OB_Iw = /* Western OB local indices */
(PID.TID 0000.0001)    26 @      -99                            /* J = -2: 23 */
(PID.TID 0000.0001) ======== Tile bi=  14 , bj=   1 ========
(PID.TID 0000.0001)  OB_Jn = /* Northern OB local indices */
(PID.TID 0000.0001)    23 @      -99                            /* I = -2: 20 */
(PID.TID 0000.0001)  OB_Js = /* Southern OB local indices */
(PID.TID 0000.0001)    23 @        1                            /* I = -2: 20 */
(PID.TID 0000.0001)  OB_Ie = /* Eastern OB local indices */
(PID.TID 0000.0001)    26 @      -99                            /* J = -2: 23 */
(PID.TID 0000.0001)  OB_Iw = /* Western OB local indices */
(PID.TID 0000.0001)    26 @      -99                            /* J = -2: 23 */
(PID.TID 0000.0001) ======== Tile bi=  15 , bj=   1 ========
(PID.TID 0000.0001)  OB_Jn = /* Northern OB local indices */
(PID.TID 0000.0001)    23 @      -99                            /* I = -2: 20 */
(PID.TID 0000.0001)  OB_Js = /* Southern OB local indices */
(PID.TID 0000.0001)    23 @        1                            /* I = -2: 20 */
(PID.TID 0000.0001)  OB_Ie = /* Eastern OB local indices */
(PID.TID 0000.0001)    26 @      -99                            /* J = -2: 23 */
(PID.TID 0000.0001)  OB_Iw = /* Western OB local indices */
(PID.TID 0000.0001)    26 @      -99                            /* J = -2: 23 */
(PID.TID 0000.0001) ======== Tile bi=  16 , bj=   1 ========
(PID.TID 0000.0001)  OB_Jn = /* Northern OB local indices */
(PID.TID 0000.0001)    23 @      -99                            /* I = -2: 20 */
(PID.TID 0000.0001)  OB_Js = /* Southern OB local indices */
(PID.TID 0000.0001)    23 @        1                            /* I = -2: 20 */
(PID.TID 0000.0001)  OB_Ie = /* Eastern OB local indices */
(PID.TID 0000.0001)    26 @      -99                            /* J = -2: 23 */
(PID.TID 0000.0001)  OB_Iw = /* Western OB local indices */
(PID.TID 0000.0001)    26 @      -99                            /* J = -2: 23 */
(PID.TID 0000.0001) ======== Tile bi=   1 , bj=   2 ========
(PID.TID 0000.0001)  OB_Jn = /* Northern OB local indices */
(PID.TID 0000.0001)    23 @      -99                            /* I = -2: 20 */
(PID.TID 0000.0001)  OB_Js = /* Southern OB local indices */
(PID.TID 0000.0001)    23 @      -99                            /* I = -2: 20 */
(PID.TID 0000.0001)  OB_Ie = /* Eastern OB local indices */
(PID.TID 0000.0001)    26 @      -99                            /* J = -2: 23 */
(PID.TID 0000.0001)  OB_Iw = /* Western OB local indices */
(PID.TID 0000.0001)    26 @      -99                            /* J = -2: 23 */
(PID.TID 0000.0001) ======== Tile bi=   2 , bj=   2 ========
(PID.TID 0000.0001)  OB_Jn = /* Northern OB local indices */
(PID.TID 0000.0001)    23 @      -99                            /* I = -2: 20 */
(PID.TID 0000.0001)  OB_Js = /* Southern OB local indices */
(PID.TID 0000.0001)    23 @      -99                            /* I = -2: 20 */
(PID.TID 0000.0001)  OB_Ie = /* Eastern OB local indices */
(PID.TID 0000.0001)    26 @      -99                            /* J = -2: 23 */
(PID.TID 0000.0001)  OB_Iw = /* Western OB local indices */
(PID.TID 0000.0001)    26 @      -99                            /* J = -2: 23 */
(PID.TID 0000.0001) ======== Tile bi=   3 , bj=   2 ========
(PID.TID 0000.0001)  OB_Jn = /* Northern OB local indices */
(PID.TID 0000.0001)    23 @      -99                            /* I = -2: 20 */
(PID.TID 0000.0001)  OB_Js = /* Southern OB local indices */
(PID.TID 0000.0001)    23 @      -99                            /* I = -2: 20 */
(PID.TID 0000.0001)  OB_Ie = /* Eastern OB local indices */
(PID.TID 0000.0001)    26 @      -99                            /* J = -2: 23 */
(PID.TID 0000.0001)  OB_Iw = /* Western OB local indices */
(PID.TID 0000.0001)    26 @      -99                            /* J = -2: 23 */
(PID.TID 0000.0001) ======== Tile bi=   4 , bj=   2 ========
(PID.TID 0000.0001)  OB_Jn = /* Northern OB local indices */
(PID.TID 0000.0001)    23 @      -99                            /* I = -2: 20 */
(PID.TID 0000.0001)  OB_Js = /* Southern OB local indices */
(PID.TID 0000.0001)    23 @      -99                            /* I = -2: 20 */
(PID.TID 0000.0001)  OB_Ie = /* Eastern OB local indices */
(PID.TID 0000.0001)    26 @      -99                            /* J = -2: 23 */
(PID.TID 0000.0001)  OB_Iw = /* Western OB local indices */
(PID.TID 0000.0001)    26 @      -99                            /* J = -2: 23 */
(PID.TID 0000.0001) ======== Tile bi=   5 , bj=   2 ========
(PID.TID 0000.0001)  OB_Jn = /* Northern OB local indices */
(PID.TID 0000.0001)    23 @      -99                            /* I = -2: 20 */
(PID.TID 0000.0001)  OB_Js = /* Southern OB local indices */
(PID.TID 0000.0001)    23 @      -99                            /* I = -2: 20 */
(PID.TID 0000.0001)  OB_Ie = /* Eastern OB local indices */
(PID.TID 0000.0001)    26 @      -99                            /* J = -2: 23 */
(PID.TID 0000.0001)  OB_Iw = /* Western OB local indices */
(PID.TID 0000.0001)    26 @      -99                            /* J = -2: 23 */
(PID.TID 0000.0001) ======== Tile bi=   6 , bj=   2 ========
(PID.TID 0000.0001)  OB_Jn = /* Northern OB local indices */
(PID.TID 0000.0001)    23 @      -99                            /* I = -2: 20 */
(PID.TID 0000.0001)  OB_Js = /* Southern OB local indices */
(PID.TID 0000.0001)    23 @      -99                            /* I = -2: 20 */
(PID.TID 0000.0001)  OB_Ie = /* Eastern OB local indices */
(PID.TID 0000.0001)    26 @      -99                            /* J = -2: 23 */
(PID.TID 0000.0001)  OB_Iw = /* Western OB local indices */
(PID.TID 0000.0001)    26 @      -99                            /* J = -2: 23 */
(PID.TID 0000.0001) ======== Tile bi=   7 , bj=   2 ========
(PID.TID 0000.0001)  OB_Jn = /* Northern OB local indices */
(PID.TID 0000.0001)    23 @      -99                            /* I = -2: 20 */
(PID.TID 0000.0001)  OB_Js = /* Southern OB local indices */
(PID.TID 0000.0001)    23 @      -99                            /* I = -2: 20 */
(PID.TID 0000.0001)  OB_Ie = /* Eastern OB local indices */
(PID.TID 0000.0001)    26 @      -99                            /* J = -2: 23 */
(PID.TID 0000.0001)  OB_Iw = /* Western OB local indices */
(PID.TID 0000.0001)    26 @      -99                            /* J = -2: 23 */
(PID.TID 0000.0001) ======== Tile bi=   8 , bj=   2 ========
(PID.TID 0000.0001)  OB_Jn = /* Northern OB local indices */
(PID.TID 0000.0001)    23 @      -99                            /* I = -2: 20 */
(PID.TID 0000.0001)  OB_Js = /* Southern OB local indices */
(PID.TID 0000.0001)    23 @      -99                            /* I = -2: 20 */
(PID.TID 0000.0001)  OB_Ie = /* Eastern OB local indices */
(PID.TID 0000.0001)    26 @      -99                            /* J = -2: 23 */
(PID.TID 0000.0001)  OB_Iw = /* Western OB local indices */
(PID.TID 0000.0001)    26 @      -99                            /* J = -2: 23 */
(PID.TID 0000.0001) ======== Tile bi=   9 , bj=   2 ========
(PID.TID 0000.0001)  OB_Jn = /* Northern OB local indices */
(PID.TID 0000.0001)    23 @      -99                            /* I = -2: 20 */
(PID.TID 0000.0001)  OB_Js = /* Southern OB local indices */
(PID.TID 0000.0001)    23 @      -99                            /* I = -2: 20 */
(PID.TID 0000.0001)  OB_Ie = /* Eastern OB local indices */
(PID.TID 0000.0001)    26 @      -99                            /* J = -2: 23 */
(PID.TID 0000.0001)  OB_Iw = /* Western OB local indices */
(PID.TID 0000.0001)    26 @      -99                            /* J = -2: 23 */
(PID.TID 0000.0001) ======== Tile bi=  10 , bj=   2 ========
(PID.TID 0000.0001)  OB_Jn = /* Northern OB local indices */
(PID.TID 0000.0001)    23 @      -99                            /* I = -2: 20 */
(PID.TID 0000.0001)  OB_Js = /* Southern OB local indices */
(PID.TID 0000.0001)    23 @      -99                            /* I = -2: 20 */
(PID.TID 0000.0001)  OB_Ie = /* Eastern OB local indices */
(PID.TID 0000.0001)    26 @      -99                            /* J = -2: 23 */
(PID.TID 0000.0001)  OB_Iw = /* Western OB local indices */
(PID.TID 0000.0001)    26 @      -99                            /* J = -2: 23 */
(PID.TID 0000.0001) ======== Tile bi=  11 , bj=   2 ========
(PID.TID 0000.0001)  OB_Jn = /* Northern OB local indices */
(PID.TID 0000.0001)    23 @      -99                            /* I = -2: 20 */
(PID.TID 0000.0001)  OB_Js = /* Southern OB local indices */
(PID.TID 0000.0001)    23 @      -99                            /* I = -2: 20 */
(PID.TID 0000.0001)  OB_Ie = /* Eastern OB local indices */
(PID.TID 0000.0001)    26 @      -99                            /* J = -2: 23 */
(PID.TID 0000.0001)  OB_Iw = /* Western OB local indices */
(PID.TID 0000.0001)    26 @      -99                            /* J = -2: 23 */
(PID.TID 0000.0001) ======== Tile bi=  12 , bj=   2 ========
(PID.TID 0000.0001)  OB_Jn = /* Northern OB local indices */
(PID.TID 0000.0001)    23 @      -99                            /* I = -2: 20 */
(PID.TID 0000.0001)  OB_Js = /* Southern OB local indices */
(PID.TID 0000.0001)    23 @      -99                            /* I = -2: 20 */
(PID.TID 0000.0001)  OB_Ie = /* Eastern OB local indices */
(PID.TID 0000.0001)    26 @      -99                            /* J = -2: 23 */
(PID.TID 0000.0001)  OB_Iw = /* Western OB local indices */
(PID.TID 0000.0001)    26 @      -99                            /* J = -2: 23 */
(PID.TID 0000.0001) ======== Tile bi=  13 , bj=   2 ========
(PID.TID 0000.0001)  OB_Jn = /* Northern OB local indices */
(PID.TID 0000.0001)    23 @      -99                            /* I = -2: 20 */
(PID.TID 0000.0001)  OB_Js = /* Southern OB local indices */
(PID.TID 0000.0001)    23 @      -99                            /* I = -2: 20 */
(PID.TID 0000.0001)  OB_Ie = /* Eastern OB local indices */
(PID.TID 0000.0001)    26 @      -99                            /* J = -2: 23 */
(PID.TID 0000.0001)  OB_Iw = /* Western OB local indices */
(PID.TID 0000.0001)    26 @      -99                            /* J = -2: 23 */
(PID.TID 0000.0001) ======== Tile bi=  14 , bj=   2 ========
(PID.TID 0000.0001)  OB_Jn = /* Northern OB local indices */
(PID.TID 0000.0001)    23 @      -99                            /* I = -2: 20 */
(PID.TID 0000.0001)  OB_Js = /* Southern OB local indices */
(PID.TID 0000.0001)    23 @      -99                            /* I = -2: 20 */
(PID.TID 0000.0001)  OB_Ie = /* Eastern OB local indices */
(PID.TID 0000.0001)    26 @      -99                            /* J = -2: 23 */
(PID.TID 0000.0001)  OB_Iw = /* Western OB local indices */
(PID.TID 0000.0001)    26 @      -99                            /* J = -2: 23 */
(PID.TID 0000.0001) ======== Tile bi=  15 , bj=   2 ========
(PID.TID 0000.0001)  OB_Jn = /* Northern OB local indices */
(PID.TID 0000.0001)    23 @      -99                            /* I = -2: 20 */
(PID.TID 0000.0001)  OB_Js = /* Southern OB local indices */
(PID.TID 0000.0001)    23 @      -99                            /* I = -2: 20 */
(PID.TID 0000.0001)  OB_Ie = /* Eastern OB local indices */
(PID.TID 0000.0001)    26 @      -99                            /* J = -2: 23 */
(PID.TID 0000.0001)  OB_Iw = /* Western OB local indices */
(PID.TID 0000.0001)    26 @      -99                            /* J = -2: 23 */
(PID.TID 0000.0001) ======== Tile bi=  16 , bj=   2 ========
(PID.TID 0000.0001)  OB_Jn = /* Northern OB local indices */
(PID.TID 0000.0001)    23 @      -99                            /* I = -2: 20 */
(PID.TID 0000.0001)  OB_Js = /* Southern OB local indices */
(PID.TID 0000.0001)    23 @      -99                            /* I = -2: 20 */
(PID.TID 0000.0001)  OB_Ie = /* Eastern OB local indices */
(PID.TID 0000.0001)    26 @      -99                            /* J = -2: 23 */
(PID.TID 0000.0001)  OB_Iw = /* Western OB local indices */
(PID.TID 0000.0001)    26 @      -99                            /* J = -2: 23 */
(PID.TID 0000.0001) ======== Tile bi=   1 , bj=   3 ========
(PID.TID 0000.0001)  OB_Jn = /* Northern OB local indices */
(PID.TID 0000.0001)    23 @      -99                            /* I = -2: 20 */
(PID.TID 0000.0001)  OB_Js = /* Southern OB local indices */
(PID.TID 0000.0001)    23 @      -99                            /* I = -2: 20 */
(PID.TID 0000.0001)  OB_Ie = /* Eastern OB local indices */
(PID.TID 0000.0001)    26 @      -99                            /* J = -2: 23 */
(PID.TID 0000.0001)  OB_Iw = /* Western OB local indices */
(PID.TID 0000.0001)    26 @      -99                            /* J = -2: 23 */
(PID.TID 0000.0001) ======== Tile bi=   2 , bj=   3 ========
(PID.TID 0000.0001)  OB_Jn = /* Northern OB local indices */
(PID.TID 0000.0001)    23 @      -99                            /* I = -2: 20 */
(PID.TID 0000.0001)  OB_Js = /* Southern OB local indices */
(PID.TID 0000.0001)    23 @      -99                            /* I = -2: 20 */
(PID.TID 0000.0001)  OB_Ie = /* Eastern OB local indices */
(PID.TID 0000.0001)    26 @      -99                            /* J = -2: 23 */
(PID.TID 0000.0001)  OB_Iw = /* Western OB local indices */
(PID.TID 0000.0001)    26 @      -99                            /* J = -2: 23 */
(PID.TID 0000.0001) ======== Tile bi=   3 , bj=   3 ========
(PID.TID 0000.0001)  OB_Jn = /* Northern OB local indices */
(PID.TID 0000.0001)    23 @      -99                            /* I = -2: 20 */
(PID.TID 0000.0001)  OB_Js = /* Southern OB local indices */
(PID.TID 0000.0001)    23 @      -99                            /* I = -2: 20 */
(PID.TID 0000.0001)  OB_Ie = /* Eastern OB local indices */
(PID.TID 0000.0001)    26 @      -99                            /* J = -2: 23 */
(PID.TID 0000.0001)  OB_Iw = /* Western OB local indices */
(PID.TID 0000.0001)    26 @      -99                            /* J = -2: 23 */
(PID.TID 0000.0001) ======== Tile bi=   4 , bj=   3 ========
(PID.TID 0000.0001)  OB_Jn = /* Northern OB local indices */
(PID.TID 0000.0001)    23 @      -99                            /* I = -2: 20 */
(PID.TID 0000.0001)  OB_Js = /* Southern OB local indices */
(PID.TID 0000.0001)    23 @      -99                            /* I = -2: 20 */
(PID.TID 0000.0001)  OB_Ie = /* Eastern OB local indices */
(PID.TID 0000.0001)    26 @      -99                            /* J = -2: 23 */
(PID.TID 0000.0001)  OB_Iw = /* Western OB local indices */
(PID.TID 0000.0001)    26 @      -99                            /* J = -2: 23 */
(PID.TID 0000.0001) ======== Tile bi=   5 , bj=   3 ========
(PID.TID 0000.0001)  OB_Jn = /* Northern OB local indices */
(PID.TID 0000.0001)    23 @      -99                            /* I = -2: 20 */
(PID.TID 0000.0001)  OB_Js = /* Southern OB local indices */
(PID.TID 0000.0001)    23 @      -99                            /* I = -2: 20 */
(PID.TID 0000.0001)  OB_Ie = /* Eastern OB local indices */
(PID.TID 0000.0001)    26 @      -99                            /* J = -2: 23 */
(PID.TID 0000.0001)  OB_Iw = /* Western OB local indices */
(PID.TID 0000.0001)    26 @      -99                            /* J = -2: 23 */
(PID.TID 0000.0001) ======== Tile bi=   6 , bj=   3 ========
(PID.TID 0000.0001)  OB_Jn = /* Northern OB local indices */
(PID.TID 0000.0001)    23 @      -99                            /* I = -2: 20 */
(PID.TID 0000.0001)  OB_Js = /* Southern OB local indices */
(PID.TID 0000.0001)    23 @      -99                            /* I = -2: 20 */
(PID.TID 0000.0001)  OB_Ie = /* Eastern OB local indices */
(PID.TID 0000.0001)    26 @      -99                            /* J = -2: 23 */
(PID.TID 0000.0001)  OB_Iw = /* Western OB local indices */
(PID.TID 0000.0001)    26 @      -99                            /* J = -2: 23 */
(PID.TID 0000.0001) ======== Tile bi=   7 , bj=   3 ========
(PID.TID 0000.0001)  OB_Jn = /* Northern OB local indices */
(PID.TID 0000.0001)    23 @      -99                            /* I = -2: 20 */
(PID.TID 0000.0001)  OB_Js = /* Southern OB local indices */
(PID.TID 0000.0001)    23 @      -99                            /* I = -2: 20 */
(PID.TID 0000.0001)  OB_Ie = /* Eastern OB local indices */
(PID.TID 0000.0001)    26 @      -99                            /* J = -2: 23 */
(PID.TID 0000.0001)  OB_Iw = /* Western OB local indices */
(PID.TID 0000.0001)    26 @      -99                            /* J = -2: 23 */
(PID.TID 0000.0001) ======== Tile bi=   8 , bj=   3 ========
(PID.TID 0000.0001)  OB_Jn = /* Northern OB local indices */
(PID.TID 0000.0001)    23 @      -99                            /* I = -2: 20 */
(PID.TID 0000.0001)  OB_Js = /* Southern OB local indices */
(PID.TID 0000.0001)    23 @      -99                            /* I = -2: 20 */
(PID.TID 0000.0001)  OB_Ie = /* Eastern OB local indices */
(PID.TID 0000.0001)    26 @      -99                            /* J = -2: 23 */
(PID.TID 0000.0001)  OB_Iw = /* Western OB local indices */
(PID.TID 0000.0001)    26 @      -99                            /* J = -2: 23 */
(PID.TID 0000.0001) ======== Tile bi=   9 , bj=   3 ========
(PID.TID 0000.0001)  OB_Jn = /* Northern OB local indices */
(PID.TID 0000.0001)    23 @      -99                            /* I = -2: 20 */
(PID.TID 0000.0001)  OB_Js = /* Southern OB local indices */
(PID.TID 0000.0001)    23 @      -99                            /* I = -2: 20 */
(PID.TID 0000.0001)  OB_Ie = /* Eastern OB local indices */
(PID.TID 0000.0001)    26 @      -99                            /* J = -2: 23 */
(PID.TID 0000.0001)  OB_Iw = /* Western OB local indices */
(PID.TID 0000.0001)    26 @      -99                            /* J = -2: 23 */
(PID.TID 0000.0001) ======== Tile bi=  10 , bj=   3 ========
(PID.TID 0000.0001)  OB_Jn = /* Northern OB local indices */
(PID.TID 0000.0001)    23 @      -99                            /* I = -2: 20 */
(PID.TID 0000.0001)  OB_Js = /* Southern OB local indices */
(PID.TID 0000.0001)    23 @      -99                            /* I = -2: 20 */
(PID.TID 0000.0001)  OB_Ie = /* Eastern OB local indices */
(PID.TID 0000.0001)    26 @      -99                            /* J = -2: 23 */
(PID.TID 0000.0001)  OB_Iw = /* Western OB local indices */
(PID.TID 0000.0001)    26 @      -99                            /* J = -2: 23 */
(PID.TID 0000.0001) ======== Tile bi=  11 , bj=   3 ========
(PID.TID 0000.0001)  OB_Jn = /* Northern OB local indices */
(PID.TID 0000.0001)    23 @      -99                            /* I = -2: 20 */
(PID.TID 0000.0001)  OB_Js = /* Southern OB local indices */
(PID.TID 0000.0001)    23 @      -99                            /* I = -2: 20 */
(PID.TID 0000.0001)  OB_Ie = /* Eastern OB local indices */
(PID.TID 0000.0001)    26 @      -99                            /* J = -2: 23 */
(PID.TID 0000.0001)  OB_Iw = /* Western OB local indices */
(PID.TID 0000.0001)    26 @      -99                            /* J = -2: 23 */
(PID.TID 0000.0001) ======== Tile bi=  12 , bj=   3 ========
(PID.TID 0000.0001)  OB_Jn = /* Northern OB local indices */
(PID.TID 0000.0001)    23 @      -99                            /* I = -2: 20 */
(PID.TID 0000.0001)  OB_Js = /* Southern OB local indices */
(PID.TID 0000.0001)    23 @      -99                            /* I = -2: 20 */
(PID.TID 0000.0001)  OB_Ie = /* Eastern OB local indices */
(PID.TID 0000.0001)    26 @      -99                            /* J = -2: 23 */
(PID.TID 0000.0001)  OB_Iw = /* Western OB local indices */
(PID.TID 0000.0001)    26 @      -99                            /* J = -2: 23 */
(PID.TID 0000.0001) ======== Tile bi=  13 , bj=   3 ========
(PID.TID 0000.0001)  OB_Jn = /* Northern OB local indices */
(PID.TID 0000.0001)    23 @      -99                            /* I = -2: 20 */
(PID.TID 0000.0001)  OB_Js = /* Southern OB local indices */
(PID.TID 0000.0001)    23 @      -99                            /* I = -2: 20 */
(PID.TID 0000.0001)  OB_Ie = /* Eastern OB local indices */
(PID.TID 0000.0001)    26 @      -99                            /* J = -2: 23 */
(PID.TID 0000.0001)  OB_Iw = /* Western OB local indices */
(PID.TID 0000.0001)    26 @      -99                            /* J = -2: 23 */
(PID.TID 0000.0001) ======== Tile bi=  14 , bj=   3 ========
(PID.TID 0000.0001)  OB_Jn = /* Northern OB local indices */
(PID.TID 0000.0001)    23 @      -99                            /* I = -2: 20 */
(PID.TID 0000.0001)  OB_Js = /* Southern OB local indices */
(PID.TID 0000.0001)    23 @      -99                            /* I = -2: 20 */
(PID.TID 0000.0001)  OB_Ie = /* Eastern OB local indices */
(PID.TID 0000.0001)    26 @      -99                            /* J = -2: 23 */
(PID.TID 0000.0001)  OB_Iw = /* Western OB local indices */
(PID.TID 0000.0001)    26 @      -99                            /* J = -2: 23 */
(PID.TID 0000.0001) ======== Tile bi=  15 , bj=   3 ========
(PID.TID 0000.0001)  OB_Jn = /* Northern OB local indices */
(PID.TID 0000.0001)    23 @      -99                            /* I = -2: 20 */
(PID.TID 0000.0001)  OB_Js = /* Southern OB local indices */
(PID.TID 0000.0001)    23 @      -99                            /* I = -2: 20 */
(PID.TID 0000.0001)  OB_Ie = /* Eastern OB local indices */
(PID.TID 0000.0001)    26 @      -99                            /* J = -2: 23 */
(PID.TID 0000.0001)  OB_Iw = /* Western OB local indices */
(PID.TID 0000.0001)    26 @      -99                            /* J = -2: 23 */
(PID.TID 0000.0001) ======== Tile bi=  16 , bj=   3 ========
(PID.TID 0000.0001)  OB_Jn = /* Northern OB local indices */
(PID.TID 0000.0001)    23 @      -99                            /* I = -2: 20 */
(PID.TID 0000.0001)  OB_Js = /* Southern OB local indices */
(PID.TID 0000.0001)    23 @      -99                            /* I = -2: 20 */
(PID.TID 0000.0001)  OB_Ie = /* Eastern OB local indices */
(PID.TID 0000.0001)    26 @      -99                            /* J = -2: 23 */
(PID.TID 0000.0001)  OB_Iw = /* Western OB local indices */
(PID.TID 0000.0001)    26 @      -99                            /* J = -2: 23 */
(PID.TID 0000.0001) ======== Tile bi=   1 , bj=   4 ========
(PID.TID 0000.0001)  OB_Jn = /* Northern OB local indices */
(PID.TID 0000.0001)    23 @      -99                            /* I = -2: 20 */
(PID.TID 0000.0001)  OB_Js = /* Southern OB local indices */
(PID.TID 0000.0001)    23 @      -99                            /* I = -2: 20 */
(PID.TID 0000.0001)  OB_Ie = /* Eastern OB local indices */
(PID.TID 0000.0001)    26 @      -99                            /* J = -2: 23 */
(PID.TID 0000.0001)  OB_Iw = /* Western OB local indices */
(PID.TID 0000.0001)    26 @      -99                            /* J = -2: 23 */
(PID.TID 0000.0001) ======== Tile bi=   2 , bj=   4 ========
(PID.TID 0000.0001)  OB_Jn = /* Northern OB local indices */
(PID.TID 0000.0001)    23 @      -99                            /* I = -2: 20 */
(PID.TID 0000.0001)  OB_Js = /* Southern OB local indices */
(PID.TID 0000.0001)    23 @      -99                            /* I = -2: 20 */
(PID.TID 0000.0001)  OB_Ie = /* Eastern OB local indices */
(PID.TID 0000.0001)    26 @      -99                            /* J = -2: 23 */
(PID.TID 0000.0001)  OB_Iw = /* Western OB local indices */
(PID.TID 0000.0001)    26 @      -99                            /* J = -2: 23 */
(PID.TID 0000.0001) ======== Tile bi=   3 , bj=   4 ========
(PID.TID 0000.0001)  OB_Jn = /* Northern OB local indices */
(PID.TID 0000.0001)    23 @      -99                            /* I = -2: 20 */
(PID.TID 0000.0001)  OB_Js = /* Southern OB local indices */
(PID.TID 0000.0001)    23 @      -99                            /* I = -2: 20 */
(PID.TID 0000.0001)  OB_Ie = /* Eastern OB local indices */
(PID.TID 0000.0001)    26 @      -99                            /* J = -2: 23 */
(PID.TID 0000.0001)  OB_Iw = /* Western OB local indices */
(PID.TID 0000.0001)    26 @      -99                            /* J = -2: 23 */
(PID.TID 0000.0001) ======== Tile bi=   4 , bj=   4 ========
(PID.TID 0000.0001)  OB_Jn = /* Northern OB local indices */
(PID.TID 0000.0001)    23 @      -99                            /* I = -2: 20 */
(PID.TID 0000.0001)  OB_Js = /* Southern OB local indices */
(PID.TID 0000.0001)    23 @      -99                            /* I = -2: 20 */
(PID.TID 0000.0001)  OB_Ie = /* Eastern OB local indices */
(PID.TID 0000.0001)    26 @      -99                            /* J = -2: 23 */
(PID.TID 0000.0001)  OB_Iw = /* Western OB local indices */
(PID.TID 0000.0001)    26 @      -99                            /* J = -2: 23 */
(PID.TID 0000.0001) ======== Tile bi=   5 , bj=   4 ========
(PID.TID 0000.0001)  OB_Jn = /* Northern OB local indices */
(PID.TID 0000.0001)    23 @      -99                            /* I = -2: 20 */
(PID.TID 0000.0001)  OB_Js = /* Southern OB local indices */
(PID.TID 0000.0001)    23 @      -99                            /* I = -2: 20 */
(PID.TID 0000.0001)  OB_Ie = /* Eastern OB local indices */
(PID.TID 0000.0001)    26 @      -99                            /* J = -2: 23 */
(PID.TID 0000.0001)  OB_Iw = /* Western OB local indices */
(PID.TID 0000.0001)    26 @      -99                            /* J = -2: 23 */
(PID.TID 0000.0001) ======== Tile bi=   6 , bj=   4 ========
(PID.TID 0000.0001)  OB_Jn = /* Northern OB local indices */
(PID.TID 0000.0001)    23 @      -99                            /* I = -2: 20 */
(PID.TID 0000.0001)  OB_Js = /* Southern OB local indices */
(PID.TID 0000.0001)    23 @      -99                            /* I = -2: 20 */
(PID.TID 0000.0001)  OB_Ie = /* Eastern OB local indices */
(PID.TID 0000.0001)    26 @      -99                            /* J = -2: 23 */
(PID.TID 0000.0001)  OB_Iw = /* Western OB local indices */
(PID.TID 0000.0001)    26 @      -99                            /* J = -2: 23 */
(PID.TID 0000.0001) ======== Tile bi=   7 , bj=   4 ========
(PID.TID 0000.0001)  OB_Jn = /* Northern OB local indices */
(PID.TID 0000.0001)    23 @      -99                            /* I = -2: 20 */
(PID.TID 0000.0001)  OB_Js = /* Southern OB local indices */
(PID.TID 0000.0001)    23 @      -99                            /* I = -2: 20 */
(PID.TID 0000.0001)  OB_Ie = /* Eastern OB local indices */
(PID.TID 0000.0001)    26 @      -99                            /* J = -2: 23 */
(PID.TID 0000.0001)  OB_Iw = /* Western OB local indices */
(PID.TID 0000.0001)    26 @      -99                            /* J = -2: 23 */
(PID.TID 0000.0001) ======== Tile bi=   8 , bj=   4 ========
(PID.TID 0000.0001)  OB_Jn = /* Northern OB local indices */
(PID.TID 0000.0001)    23 @      -99                            /* I = -2: 20 */
(PID.TID 0000.0001)  OB_Js = /* Southern OB local indices */
(PID.TID 0000.0001)    23 @      -99                            /* I = -2: 20 */
(PID.TID 0000.0001)  OB_Ie = /* Eastern OB local indices */
(PID.TID 0000.0001)    26 @      -99                            /* J = -2: 23 */
(PID.TID 0000.0001)  OB_Iw = /* Western OB local indices */
(PID.TID 0000.0001)    26 @      -99                            /* J = -2: 23 */
(PID.TID 0000.0001) ======== Tile bi=   9 , bj=   4 ========
(PID.TID 0000.0001)  OB_Jn = /* Northern OB local indices */
(PID.TID 0000.0001)    23 @      -99                            /* I = -2: 20 */
(PID.TID 0000.0001)  OB_Js = /* Southern OB local indices */
(PID.TID 0000.0001)    23 @      -99                            /* I = -2: 20 */
(PID.TID 0000.0001)  OB_Ie = /* Eastern OB local indices */
(PID.TID 0000.0001)    26 @      -99                            /* J = -2: 23 */
(PID.TID 0000.0001)  OB_Iw = /* Western OB local indices */
(PID.TID 0000.0001)    26 @      -99                            /* J = -2: 23 */
(PID.TID 0000.0001) ======== Tile bi=  10 , bj=   4 ========
(PID.TID 0000.0001)  OB_Jn = /* Northern OB local indices */
(PID.TID 0000.0001)    23 @      -99                            /* I = -2: 20 */
(PID.TID 0000.0001)  OB_Js = /* Southern OB local indices */
(PID.TID 0000.0001)    23 @      -99                            /* I = -2: 20 */
(PID.TID 0000.0001)  OB_Ie = /* Eastern OB local indices */
(PID.TID 0000.0001)    26 @      -99                            /* J = -2: 23 */
(PID.TID 0000.0001)  OB_Iw = /* Western OB local indices */
(PID.TID 0000.0001)    26 @      -99                            /* J = -2: 23 */
(PID.TID 0000.0001) ======== Tile bi=  11 , bj=   4 ========
(PID.TID 0000.0001)  OB_Jn = /* Northern OB local indices */
(PID.TID 0000.0001)    23 @      -99                            /* I = -2: 20 */
(PID.TID 0000.0001)  OB_Js = /* Southern OB local indices */
(PID.TID 0000.0001)    23 @      -99                            /* I = -2: 20 */
(PID.TID 0000.0001)  OB_Ie = /* Eastern OB local indices */
(PID.TID 0000.0001)    26 @      -99                            /* J = -2: 23 */
(PID.TID 0000.0001)  OB_Iw = /* Western OB local indices */
(PID.TID 0000.0001)    26 @      -99                            /* J = -2: 23 */
(PID.TID 0000.0001) ======== Tile bi=  12 , bj=   4 ========
(PID.TID 0000.0001)  OB_Jn = /* Northern OB local indices */
(PID.TID 0000.0001)    23 @      -99                            /* I = -2: 20 */
(PID.TID 0000.0001)  OB_Js = /* Southern OB local indices */
(PID.TID 0000.0001)    23 @      -99                            /* I = -2: 20 */
(PID.TID 0000.0001)  OB_Ie = /* Eastern OB local indices */
(PID.TID 0000.0001)    26 @      -99                            /* J = -2: 23 */
(PID.TID 0000.0001)  OB_Iw = /* Western OB local indices */
(PID.TID 0000.0001)    26 @      -99                            /* J = -2: 23 */
(PID.TID 0000.0001) ======== Tile bi=  13 , bj=   4 ========
(PID.TID 0000.0001)  OB_Jn = /* Northern OB local indices */
(PID.TID 0000.0001)    23 @      -99                            /* I = -2: 20 */
(PID.TID 0000.0001)  OB_Js = /* Southern OB local indices */
(PID.TID 0000.0001)    23 @      -99                            /* I = -2: 20 */
(PID.TID 0000.0001)  OB_Ie = /* Eastern OB local indices */
(PID.TID 0000.0001)    26 @      -99                            /* J = -2: 23 */
(PID.TID 0000.0001)  OB_Iw = /* Western OB local indices */
(PID.TID 0000.0001)    26 @      -99                            /* J = -2: 23 */
(PID.TID 0000.0001) ======== Tile bi=  14 , bj=   4 ========
(PID.TID 0000.0001)  OB_Jn = /* Northern OB local indices */
(PID.TID 0000.0001)    23 @      -99                            /* I = -2: 20 */
(PID.TID 0000.0001)  OB_Js = /* Southern OB local indices */
(PID.TID 0000.0001)    23 @      -99                            /* I = -2: 20 */
(PID.TID 0000.0001)  OB_Ie = /* Eastern OB local indices */
(PID.TID 0000.0001)    26 @      -99                            /* J = -2: 23 */
(PID.TID 0000.0001)  OB_Iw = /* Western OB local indices */
(PID.TID 0000.0001)    26 @      -99                            /* J = -2: 23 */
(PID.TID 0000.0001) ======== Tile bi=  15 , bj=   4 ========
(PID.TID 0000.0001)  OB_Jn = /* Northern OB local indices */
(PID.TID 0000.0001)    23 @      -99                            /* I = -2: 20 */
(PID.TID 0000.0001)  OB_Js = /* Southern OB local indices */
(PID.TID 0000.0001)    23 @      -99                            /* I = -2: 20 */
(PID.TID 0000.0001)  OB_Ie = /* Eastern OB local indices */
(PID.TID 0000.0001)    26 @      -99                            /* J = -2: 23 */
(PID.TID 0000.0001)  OB_Iw = /* Western OB local indices */
(PID.TID 0000.0001)    26 @      -99                            /* J = -2: 23 */
(PID.TID 0000.0001) ======== Tile bi=  16 , bj=   4 ========
(PID.TID 0000.0001)  OB_Jn = /* Northern OB local indices */
(PID.TID 0000.0001)    23 @      -99                            /* I = -2: 20 */
(PID.TID 0000.0001)  OB_Js = /* Southern OB local indices */
(PID.TID 0000.0001)    23 @      -99                            /* I = -2: 20 */
(PID.TID 0000.0001)  OB_Ie = /* Eastern OB local indices */
(PID.TID 0000.0001)    26 @      -99                            /* J = -2: 23 */
(PID.TID 0000.0001)  OB_Iw = /* Western OB local indices */
(PID.TID 0000.0001)    26 @      -99                            /* J = -2: 23 */
(PID.TID 0000.0001) ======== Tile bi=   1 , bj=   5 ========
(PID.TID 0000.0001)  OB_Jn = /* Northern OB local indices */
(PID.TID 0000.0001)    23 @      -99                            /* I = -2: 20 */
(PID.TID 0000.0001)  OB_Js = /* Southern OB local indices */
(PID.TID 0000.0001)    23 @      -99                            /* I = -2: 20 */
(PID.TID 0000.0001)  OB_Ie = /* Eastern OB local indices */
(PID.TID 0000.0001)    26 @      -99                            /* J = -2: 23 */
(PID.TID 0000.0001)  OB_Iw = /* Western OB local indices */
(PID.TID 0000.0001)    26 @      -99                            /* J = -2: 23 */
(PID.TID 0000.0001) ======== Tile bi=   2 , bj=   5 ========
(PID.TID 0000.0001)  OB_Jn = /* Northern OB local indices */
(PID.TID 0000.0001)    23 @      -99                            /* I = -2: 20 */
(PID.TID 0000.0001)  OB_Js = /* Southern OB local indices */
(PID.TID 0000.0001)    23 @      -99                            /* I = -2: 20 */
(PID.TID 0000.0001)  OB_Ie = /* Eastern OB local indices */
(PID.TID 0000.0001)    26 @      -99                            /* J = -2: 23 */
(PID.TID 0000.0001)  OB_Iw = /* Western OB local indices */
(PID.TID 0000.0001)    26 @      -99                            /* J = -2: 23 */
(PID.TID 0000.0001) ======== Tile bi=   3 , bj=   5 ========
(PID.TID 0000.0001)  OB_Jn = /* Northern OB local indices */
(PID.TID 0000.0001)    23 @      -99                            /* I = -2: 20 */
(PID.TID 0000.0001)  OB_Js = /* Southern OB local indices */
(PID.TID 0000.0001)    23 @      -99                            /* I = -2: 20 */
(PID.TID 0000.0001)  OB_Ie = /* Eastern OB local indices */
(PID.TID 0000.0001)    26 @      -99                            /* J = -2: 23 */
(PID.TID 0000.0001)  OB_Iw = /* Western OB local indices */
(PID.TID 0000.0001)    26 @      -99                            /* J = -2: 23 */
(PID.TID 0000.0001) ======== Tile bi=   4 , bj=   5 ========
(PID.TID 0000.0001)  OB_Jn = /* Northern OB local indices */
(PID.TID 0000.0001)    23 @      -99                            /* I = -2: 20 */
(PID.TID 0000.0001)  OB_Js = /* Southern OB local indices */
(PID.TID 0000.0001)    23 @      -99                            /* I = -2: 20 */
(PID.TID 0000.0001)  OB_Ie = /* Eastern OB local indices */
(PID.TID 0000.0001)    26 @      -99                            /* J = -2: 23 */
(PID.TID 0000.0001)  OB_Iw = /* Western OB local indices */
(PID.TID 0000.0001)    26 @      -99                            /* J = -2: 23 */
(PID.TID 0000.0001) ======== Tile bi=   5 , bj=   5 ========
(PID.TID 0000.0001)  OB_Jn = /* Northern OB local indices */
(PID.TID 0000.0001)    23 @      -99                            /* I = -2: 20 */
(PID.TID 0000.0001)  OB_Js = /* Southern OB local indices */
(PID.TID 0000.0001)    23 @      -99                            /* I = -2: 20 */
(PID.TID 0000.0001)  OB_Ie = /* Eastern OB local indices */
(PID.TID 0000.0001)    26 @      -99                            /* J = -2: 23 */
(PID.TID 0000.0001)  OB_Iw = /* Western OB local indices */
(PID.TID 0000.0001)    26 @      -99                            /* J = -2: 23 */
(PID.TID 0000.0001) ======== Tile bi=   6 , bj=   5 ========
(PID.TID 0000.0001)  OB_Jn = /* Northern OB local indices */
(PID.TID 0000.0001)    23 @      -99                            /* I = -2: 20 */
(PID.TID 0000.0001)  OB_Js = /* Southern OB local indices */
(PID.TID 0000.0001)    23 @      -99                            /* I = -2: 20 */
(PID.TID 0000.0001)  OB_Ie = /* Eastern OB local indices */
(PID.TID 0000.0001)    26 @      -99                            /* J = -2: 23 */
(PID.TID 0000.0001)  OB_Iw = /* Western OB local indices */
(PID.TID 0000.0001)    26 @      -99                            /* J = -2: 23 */
(PID.TID 0000.0001) ======== Tile bi=   7 , bj=   5 ========
(PID.TID 0000.0001)  OB_Jn = /* Northern OB local indices */
(PID.TID 0000.0001)    23 @      -99                            /* I = -2: 20 */
(PID.TID 0000.0001)  OB_Js = /* Southern OB local indices */
(PID.TID 0000.0001)    23 @      -99                            /* I = -2: 20 */
(PID.TID 0000.0001)  OB_Ie = /* Eastern OB local indices */
(PID.TID 0000.0001)    26 @      -99                            /* J = -2: 23 */
(PID.TID 0000.0001)  OB_Iw = /* Western OB local indices */
(PID.TID 0000.0001)    26 @      -99                            /* J = -2: 23 */
(PID.TID 0000.0001) ======== Tile bi=   8 , bj=   5 ========
(PID.TID 0000.0001)  OB_Jn = /* Northern OB local indices */
(PID.TID 0000.0001)    23 @      -99                            /* I = -2: 20 */
(PID.TID 0000.0001)  OB_Js = /* Southern OB local indices */
(PID.TID 0000.0001)    23 @      -99                            /* I = -2: 20 */
(PID.TID 0000.0001)  OB_Ie = /* Eastern OB local indices */
(PID.TID 0000.0001)    26 @      -99                            /* J = -2: 23 */
(PID.TID 0000.0001)  OB_Iw = /* Western OB local indices */
(PID.TID 0000.0001)    26 @      -99                            /* J = -2: 23 */
(PID.TID 0000.0001) ======== Tile bi=   9 , bj=   5 ========
(PID.TID 0000.0001)  OB_Jn = /* Northern OB local indices */
(PID.TID 0000.0001)    23 @      -99                            /* I = -2: 20 */
(PID.TID 0000.0001)  OB_Js = /* Southern OB local indices */
(PID.TID 0000.0001)    23 @      -99                            /* I = -2: 20 */
(PID.TID 0000.0001)  OB_Ie = /* Eastern OB local indices */
(PID.TID 0000.0001)    26 @      -99                            /* J = -2: 23 */
(PID.TID 0000.0001)  OB_Iw = /* Western OB local indices */
(PID.TID 0000.0001)    26 @      -99                            /* J = -2: 23 */
(PID.TID 0000.0001) ======== Tile bi=  10 , bj=   5 ========
(PID.TID 0000.0001)  OB_Jn = /* Northern OB local indices */
(PID.TID 0000.0001)    23 @      -99                            /* I = -2: 20 */
(PID.TID 0000.0001)  OB_Js = /* Southern OB local indices */
(PID.TID 0000.0001)    23 @      -99                            /* I = -2: 20 */
(PID.TID 0000.0001)  OB_Ie = /* Eastern OB local indices */
(PID.TID 0000.0001)    26 @      -99                            /* J = -2: 23 */
(PID.TID 0000.0001)  OB_Iw = /* Western OB local indices */
(PID.TID 0000.0001)    26 @      -99                            /* J = -2: 23 */
(PID.TID 0000.0001) ======== Tile bi=  11 , bj=   5 ========
(PID.TID 0000.0001)  OB_Jn = /* Northern OB local indices */
(PID.TID 0000.0001)    23 @      -99                            /* I = -2: 20 */
(PID.TID 0000.0001)  OB_Js = /* Southern OB local indices */
(PID.TID 0000.0001)    23 @      -99                            /* I = -2: 20 */
(PID.TID 0000.0001)  OB_Ie = /* Eastern OB local indices */
(PID.TID 0000.0001)    26 @      -99                            /* J = -2: 23 */
(PID.TID 0000.0001)  OB_Iw = /* Western OB local indices */
(PID.TID 0000.0001)    26 @      -99                            /* J = -2: 23 */
(PID.TID 0000.0001) ======== Tile bi=  12 , bj=   5 ========
(PID.TID 0000.0001)  OB_Jn = /* Northern OB local indices */
(PID.TID 0000.0001)    23 @      -99                            /* I = -2: 20 */
(PID.TID 0000.0001)  OB_Js = /* Southern OB local indices */
(PID.TID 0000.0001)    23 @      -99                            /* I = -2: 20 */
(PID.TID 0000.0001)  OB_Ie = /* Eastern OB local indices */
(PID.TID 0000.0001)    26 @      -99                            /* J = -2: 23 */
(PID.TID 0000.0001)  OB_Iw = /* Western OB local indices */
(PID.TID 0000.0001)    26 @      -99                            /* J = -2: 23 */
(PID.TID 0000.0001) ======== Tile bi=  13 , bj=   5 ========
(PID.TID 0000.0001)  OB_Jn = /* Northern OB local indices */
(PID.TID 0000.0001)    23 @      -99                            /* I = -2: 20 */
(PID.TID 0000.0001)  OB_Js = /* Southern OB local indices */
(PID.TID 0000.0001)    23 @      -99                            /* I = -2: 20 */
(PID.TID 0000.0001)  OB_Ie = /* Eastern OB local indices */
(PID.TID 0000.0001)    26 @      -99                            /* J = -2: 23 */
(PID.TID 0000.0001)  OB_Iw = /* Western OB local indices */
(PID.TID 0000.0001)    26 @      -99                            /* J = -2: 23 */
(PID.TID 0000.0001) ======== Tile bi=  14 , bj=   5 ========
(PID.TID 0000.0001)  OB_Jn = /* Northern OB local indices */
(PID.TID 0000.0001)    23 @      -99                            /* I = -2: 20 */
(PID.TID 0000.0001)  OB_Js = /* Southern OB local indices */
(PID.TID 0000.0001)    23 @      -99                            /* I = -2: 20 */
(PID.TID 0000.0001)  OB_Ie = /* Eastern OB local indices */
(PID.TID 0000.0001)    26 @      -99                            /* J = -2: 23 */
(PID.TID 0000.0001)  OB_Iw = /* Western OB local indices */
(PID.TID 0000.0001)    26 @      -99                            /* J = -2: 23 */
(PID.TID 0000.0001) ======== Tile bi=  15 , bj=   5 ========
(PID.TID 0000.0001)  OB_Jn = /* Northern OB local indices */
(PID.TID 0000.0001)    23 @      -99                            /* I = -2: 20 */
(PID.TID 0000.0001)  OB_Js = /* Southern OB local indices */
(PID.TID 0000.0001)    23 @      -99                            /* I = -2: 20 */
(PID.TID 0000.0001)  OB_Ie = /* Eastern OB local indices */
(PID.TID 0000.0001)    26 @      -99                            /* J = -2: 23 */
(PID.TID 0000.0001)  OB_Iw = /* Western OB local indices */
(PID.TID 0000.0001)    26 @      -99                            /* J = -2: 23 */
(PID.TID 0000.0001) ======== Tile bi=  16 , bj=   5 ========
(PID.TID 0000.0001)  OB_Jn = /* Northern OB local indices */
(PID.TID 0000.0001)    23 @      -99                            /* I = -2: 20 */
(PID.TID 0000.0001)  OB_Js = /* Southern OB local indices */
(PID.TID 0000.0001)    23 @      -99                            /* I = -2: 20 */
(PID.TID 0000.0001)  OB_Ie = /* Eastern OB local indices */
(PID.TID 0000.0001)    26 @      -99                            /* J = -2: 23 */
(PID.TID 0000.0001)  OB_Iw = /* Western OB local indices */
(PID.TID 0000.0001)    26 @      -99                            /* J = -2: 23 */
(PID.TID 0000.0001) ======== Tile bi=   1 , bj=   6 ========
(PID.TID 0000.0001)  OB_Jn = /* Northern OB local indices */
(PID.TID 0000.0001)    23 @      -99                            /* I = -2: 20 */
(PID.TID 0000.0001)  OB_Js = /* Southern OB local indices */
(PID.TID 0000.0001)    23 @      -99                            /* I = -2: 20 */
(PID.TID 0000.0001)  OB_Ie = /* Eastern OB local indices */
(PID.TID 0000.0001)    26 @      -99                            /* J = -2: 23 */
(PID.TID 0000.0001)  OB_Iw = /* Western OB local indices */
(PID.TID 0000.0001)    26 @      -99                            /* J = -2: 23 */
(PID.TID 0000.0001) ======== Tile bi=   2 , bj=   6 ========
(PID.TID 0000.0001)  OB_Jn = /* Northern OB local indices */
(PID.TID 0000.0001)    23 @      -99                            /* I = -2: 20 */
(PID.TID 0000.0001)  OB_Js = /* Southern OB local indices */
(PID.TID 0000.0001)    23 @      -99                            /* I = -2: 20 */
(PID.TID 0000.0001)  OB_Ie = /* Eastern OB local indices */
(PID.TID 0000.0001)    26 @      -99                            /* J = -2: 23 */
(PID.TID 0000.0001)  OB_Iw = /* Western OB local indices */
(PID.TID 0000.0001)    26 @      -99                            /* J = -2: 23 */
(PID.TID 0000.0001) ======== Tile bi=   3 , bj=   6 ========
(PID.TID 0000.0001)  OB_Jn = /* Northern OB local indices */
(PID.TID 0000.0001)    23 @      -99                            /* I = -2: 20 */
(PID.TID 0000.0001)  OB_Js = /* Southern OB local indices */
(PID.TID 0000.0001)    23 @      -99                            /* I = -2: 20 */
(PID.TID 0000.0001)  OB_Ie = /* Eastern OB local indices */
(PID.TID 0000.0001)    26 @      -99                            /* J = -2: 23 */
(PID.TID 0000.0001)  OB_Iw = /* Western OB local indices */
(PID.TID 0000.0001)    26 @      -99                            /* J = -2: 23 */
(PID.TID 0000.0001) ======== Tile bi=   4 , bj=   6 ========
(PID.TID 0000.0001)  OB_Jn = /* Northern OB local indices */
(PID.TID 0000.0001)    23 @      -99                            /* I = -2: 20 */
(PID.TID 0000.0001)  OB_Js = /* Southern OB local indices */
(PID.TID 0000.0001)    23 @      -99                            /* I = -2: 20 */
(PID.TID 0000.0001)  OB_Ie = /* Eastern OB local indices */
(PID.TID 0000.0001)    26 @      -99                            /* J = -2: 23 */
(PID.TID 0000.0001)  OB_Iw = /* Western OB local indices */
(PID.TID 0000.0001)    26 @      -99                            /* J = -2: 23 */
(PID.TID 0000.0001) ======== Tile bi=   5 , bj=   6 ========
(PID.TID 0000.0001)  OB_Jn = /* Northern OB local indices */
(PID.TID 0000.0001)    23 @      -99                            /* I = -2: 20 */
(PID.TID 0000.0001)  OB_Js = /* Southern OB local indices */
(PID.TID 0000.0001)    23 @      -99                            /* I = -2: 20 */
(PID.TID 0000.0001)  OB_Ie = /* Eastern OB local indices */
(PID.TID 0000.0001)    26 @      -99                            /* J = -2: 23 */
(PID.TID 0000.0001)  OB_Iw = /* Western OB local indices */
(PID.TID 0000.0001)    26 @      -99                            /* J = -2: 23 */
(PID.TID 0000.0001) ======== Tile bi=   6 , bj=   6 ========
(PID.TID 0000.0001)  OB_Jn = /* Northern OB local indices */
(PID.TID 0000.0001)    23 @      -99                            /* I = -2: 20 */
(PID.TID 0000.0001)  OB_Js = /* Southern OB local indices */
(PID.TID 0000.0001)    23 @      -99                            /* I = -2: 20 */
(PID.TID 0000.0001)  OB_Ie = /* Eastern OB local indices */
(PID.TID 0000.0001)    26 @      -99                            /* J = -2: 23 */
(PID.TID 0000.0001)  OB_Iw = /* Western OB local indices */
(PID.TID 0000.0001)    26 @      -99                            /* J = -2: 23 */
(PID.TID 0000.0001) ======== Tile bi=   7 , bj=   6 ========
(PID.TID 0000.0001)  OB_Jn = /* Northern OB local indices */
(PID.TID 0000.0001)    23 @      -99                            /* I = -2: 20 */
(PID.TID 0000.0001)  OB_Js = /* Southern OB local indices */
(PID.TID 0000.0001)    23 @      -99                            /* I = -2: 20 */
(PID.TID 0000.0001)  OB_Ie = /* Eastern OB local indices */
(PID.TID 0000.0001)    26 @      -99                            /* J = -2: 23 */
(PID.TID 0000.0001)  OB_Iw = /* Western OB local indices */
(PID.TID 0000.0001)    26 @      -99                            /* J = -2: 23 */
(PID.TID 0000.0001) ======== Tile bi=   8 , bj=   6 ========
(PID.TID 0000.0001)  OB_Jn = /* Northern OB local indices */
(PID.TID 0000.0001)    23 @      -99                            /* I = -2: 20 */
(PID.TID 0000.0001)  OB_Js = /* Southern OB local indices */
(PID.TID 0000.0001)    23 @      -99                            /* I = -2: 20 */
(PID.TID 0000.0001)  OB_Ie = /* Eastern OB local indices */
(PID.TID 0000.0001)    26 @      -99                            /* J = -2: 23 */
(PID.TID 0000.0001)  OB_Iw = /* Western OB local indices */
(PID.TID 0000.0001)    26 @      -99                            /* J = -2: 23 */
(PID.TID 0000.0001) ======== Tile bi=   9 , bj=   6 ========
(PID.TID 0000.0001)  OB_Jn = /* Northern OB local indices */
(PID.TID 0000.0001)    23 @      -99                            /* I = -2: 20 */
(PID.TID 0000.0001)  OB_Js = /* Southern OB local indices */
(PID.TID 0000.0001)    23 @      -99                            /* I = -2: 20 */
(PID.TID 0000.0001)  OB_Ie = /* Eastern OB local indices */
(PID.TID 0000.0001)    26 @      -99                            /* J = -2: 23 */
(PID.TID 0000.0001)  OB_Iw = /* Western OB local indices */
(PID.TID 0000.0001)    26 @      -99                            /* J = -2: 23 */
(PID.TID 0000.0001) ======== Tile bi=  10 , bj=   6 ========
(PID.TID 0000.0001)  OB_Jn = /* Northern OB local indices */
(PID.TID 0000.0001)    23 @      -99                            /* I = -2: 20 */
(PID.TID 0000.0001)  OB_Js = /* Southern OB local indices */
(PID.TID 0000.0001)    23 @      -99                            /* I = -2: 20 */
(PID.TID 0000.0001)  OB_Ie = /* Eastern OB local indices */
(PID.TID 0000.0001)    26 @      -99                            /* J = -2: 23 */
(PID.TID 0000.0001)  OB_Iw = /* Western OB local indices */
(PID.TID 0000.0001)    26 @      -99                            /* J = -2: 23 */
(PID.TID 0000.0001) ======== Tile bi=  11 , bj=   6 ========
(PID.TID 0000.0001)  OB_Jn = /* Northern OB local indices */
(PID.TID 0000.0001)    23 @      -99                            /* I = -2: 20 */
(PID.TID 0000.0001)  OB_Js = /* Southern OB local indices */
(PID.TID 0000.0001)    23 @      -99                            /* I = -2: 20 */
(PID.TID 0000.0001)  OB_Ie = /* Eastern OB local indices */
(PID.TID 0000.0001)    26 @      -99                            /* J = -2: 23 */
(PID.TID 0000.0001)  OB_Iw = /* Western OB local indices */
(PID.TID 0000.0001)    26 @      -99                            /* J = -2: 23 */
(PID.TID 0000.0001) ======== Tile bi=  12 , bj=   6 ========
(PID.TID 0000.0001)  OB_Jn = /* Northern OB local indices */
(PID.TID 0000.0001)    23 @      -99                            /* I = -2: 20 */
(PID.TID 0000.0001)  OB_Js = /* Southern OB local indices */
(PID.TID 0000.0001)    23 @      -99                            /* I = -2: 20 */
(PID.TID 0000.0001)  OB_Ie = /* Eastern OB local indices */
(PID.TID 0000.0001)    26 @      -99                            /* J = -2: 23 */
(PID.TID 0000.0001)  OB_Iw = /* Western OB local indices */
(PID.TID 0000.0001)    26 @      -99                            /* J = -2: 23 */
(PID.TID 0000.0001) ======== Tile bi=  13 , bj=   6 ========
(PID.TID 0000.0001)  OB_Jn = /* Northern OB local indices */
(PID.TID 0000.0001)    23 @      -99                            /* I = -2: 20 */
(PID.TID 0000.0001)  OB_Js = /* Southern OB local indices */
(PID.TID 0000.0001)    23 @      -99                            /* I = -2: 20 */
(PID.TID 0000.0001)  OB_Ie = /* Eastern OB local indices */
(PID.TID 0000.0001)    26 @      -99                            /* J = -2: 23 */
(PID.TID 0000.0001)  OB_Iw = /* Western OB local indices */
(PID.TID 0000.0001)    26 @      -99                            /* J = -2: 23 */
(PID.TID 0000.0001) ======== Tile bi=  14 , bj=   6 ========
(PID.TID 0000.0001)  OB_Jn = /* Northern OB local indices */
(PID.TID 0000.0001)    23 @      -99                            /* I = -2: 20 */
(PID.TID 0000.0001)  OB_Js = /* Southern OB local indices */
(PID.TID 0000.0001)    23 @      -99                            /* I = -2: 20 */
(PID.TID 0000.0001)  OB_Ie = /* Eastern OB local indices */
(PID.TID 0000.0001)    26 @      -99                            /* J = -2: 23 */
(PID.TID 0000.0001)  OB_Iw = /* Western OB local indices */
(PID.TID 0000.0001)    26 @      -99                            /* J = -2: 23 */
(PID.TID 0000.0001) ======== Tile bi=  15 , bj=   6 ========
(PID.TID 0000.0001)  OB_Jn = /* Northern OB local indices */
(PID.TID 0000.0001)    23 @      -99                            /* I = -2: 20 */
(PID.TID 0000.0001)  OB_Js = /* Southern OB local indices */
(PID.TID 0000.0001)    23 @      -99                            /* I = -2: 20 */
(PID.TID 0000.0001)  OB_Ie = /* Eastern OB local indices */
(PID.TID 0000.0001)    26 @      -99                            /* J = -2: 23 */
(PID.TID 0000.0001)  OB_Iw = /* Western OB local indices */
(PID.TID 0000.0001)    26 @      -99                            /* J = -2: 23 */
(PID.TID 0000.0001) ======== Tile bi=  16 , bj=   6 ========
(PID.TID 0000.0001)  OB_Jn = /* Northern OB local indices */
(PID.TID 0000.0001)    23 @      -99                            /* I = -2: 20 */
(PID.TID 0000.0001)  OB_Js = /* Southern OB local indices */
(PID.TID 0000.0001)    23 @      -99                            /* I = -2: 20 */
(PID.TID 0000.0001)  OB_Ie = /* Eastern OB local indices */
(PID.TID 0000.0001)    26 @      -99                            /* J = -2: 23 */
(PID.TID 0000.0001)  OB_Iw = /* Western OB local indices */
(PID.TID 0000.0001)    26 @      -99                            /* J = -2: 23 */
(PID.TID 0000.0001) ======== Tile bi=   1 , bj=   7 ========
(PID.TID 0000.0001)  OB_Jn = /* Northern OB local indices */
(PID.TID 0000.0001)    23 @      -99                            /* I = -2: 20 */
(PID.TID 0000.0001)  OB_Js = /* Southern OB local indices */
(PID.TID 0000.0001)    23 @      -99                            /* I = -2: 20 */
(PID.TID 0000.0001)  OB_Ie = /* Eastern OB local indices */
(PID.TID 0000.0001)    26 @      -99                            /* J = -2: 23 */
(PID.TID 0000.0001)  OB_Iw = /* Western OB local indices */
(PID.TID 0000.0001)    26 @      -99                            /* J = -2: 23 */
(PID.TID 0000.0001) ======== Tile bi=   2 , bj=   7 ========
(PID.TID 0000.0001)  OB_Jn = /* Northern OB local indices */
(PID.TID 0000.0001)    23 @      -99                            /* I = -2: 20 */
(PID.TID 0000.0001)  OB_Js = /* Southern OB local indices */
(PID.TID 0000.0001)    23 @      -99                            /* I = -2: 20 */
(PID.TID 0000.0001)  OB_Ie = /* Eastern OB local indices */
(PID.TID 0000.0001)    26 @      -99                            /* J = -2: 23 */
(PID.TID 0000.0001)  OB_Iw = /* Western OB local indices */
(PID.TID 0000.0001)    26 @      -99                            /* J = -2: 23 */
(PID.TID 0000.0001) ======== Tile bi=   3 , bj=   7 ========
(PID.TID 0000.0001)  OB_Jn = /* Northern OB local indices */
(PID.TID 0000.0001)    23 @      -99                            /* I = -2: 20 */
(PID.TID 0000.0001)  OB_Js = /* Southern OB local indices */
(PID.TID 0000.0001)    23 @      -99                            /* I = -2: 20 */
(PID.TID 0000.0001)  OB_Ie = /* Eastern OB local indices */
(PID.TID 0000.0001)    26 @      -99                            /* J = -2: 23 */
(PID.TID 0000.0001)  OB_Iw = /* Western OB local indices */
(PID.TID 0000.0001)    26 @      -99                            /* J = -2: 23 */
(PID.TID 0000.0001) ======== Tile bi=   4 , bj=   7 ========
(PID.TID 0000.0001)  OB_Jn = /* Northern OB local indices */
(PID.TID 0000.0001)    23 @      -99                            /* I = -2: 20 */
(PID.TID 0000.0001)  OB_Js = /* Southern OB local indices */
(PID.TID 0000.0001)    23 @      -99                            /* I = -2: 20 */
(PID.TID 0000.0001)  OB_Ie = /* Eastern OB local indices */
(PID.TID 0000.0001)    26 @      -99                            /* J = -2: 23 */
(PID.TID 0000.0001)  OB_Iw = /* Western OB local indices */
(PID.TID 0000.0001)    26 @      -99                            /* J = -2: 23 */
(PID.TID 0000.0001) ======== Tile bi=   5 , bj=   7 ========
(PID.TID 0000.0001)  OB_Jn = /* Northern OB local indices */
(PID.TID 0000.0001)    23 @      -99                            /* I = -2: 20 */
(PID.TID 0000.0001)  OB_Js = /* Southern OB local indices */
(PID.TID 0000.0001)    23 @      -99                            /* I = -2: 20 */
(PID.TID 0000.0001)  OB_Ie = /* Eastern OB local indices */
(PID.TID 0000.0001)    26 @      -99                            /* J = -2: 23 */
(PID.TID 0000.0001)  OB_Iw = /* Western OB local indices */
(PID.TID 0000.0001)    26 @      -99                            /* J = -2: 23 */
(PID.TID 0000.0001) ======== Tile bi=   6 , bj=   7 ========
(PID.TID 0000.0001)  OB_Jn = /* Northern OB local indices */
(PID.TID 0000.0001)    23 @      -99                            /* I = -2: 20 */
(PID.TID 0000.0001)  OB_Js = /* Southern OB local indices */
(PID.TID 0000.0001)    23 @      -99                            /* I = -2: 20 */
(PID.TID 0000.0001)  OB_Ie = /* Eastern OB local indices */
(PID.TID 0000.0001)    26 @      -99                            /* J = -2: 23 */
(PID.TID 0000.0001)  OB_Iw = /* Western OB local indices */
(PID.TID 0000.0001)    26 @      -99                            /* J = -2: 23 */
(PID.TID 0000.0001) ======== Tile bi=   7 , bj=   7 ========
(PID.TID 0000.0001)  OB_Jn = /* Northern OB local indices */
(PID.TID 0000.0001)    23 @      -99                            /* I = -2: 20 */
(PID.TID 0000.0001)  OB_Js = /* Southern OB local indices */
(PID.TID 0000.0001)    23 @      -99                            /* I = -2: 20 */
(PID.TID 0000.0001)  OB_Ie = /* Eastern OB local indices */
(PID.TID 0000.0001)    26 @      -99                            /* J = -2: 23 */
(PID.TID 0000.0001)  OB_Iw = /* Western OB local indices */
(PID.TID 0000.0001)    26 @      -99                            /* J = -2: 23 */
(PID.TID 0000.0001) ======== Tile bi=   8 , bj=   7 ========
(PID.TID 0000.0001)  OB_Jn = /* Northern OB local indices */
(PID.TID 0000.0001)    23 @      -99                            /* I = -2: 20 */
(PID.TID 0000.0001)  OB_Js = /* Southern OB local indices */
(PID.TID 0000.0001)    23 @      -99                            /* I = -2: 20 */
(PID.TID 0000.0001)  OB_Ie = /* Eastern OB local indices */
(PID.TID 0000.0001)    26 @      -99                            /* J = -2: 23 */
(PID.TID 0000.0001)  OB_Iw = /* Western OB local indices */
(PID.TID 0000.0001)    26 @      -99                            /* J = -2: 23 */
(PID.TID 0000.0001) ======== Tile bi=   9 , bj=   7 ========
(PID.TID 0000.0001)  OB_Jn = /* Northern OB local indices */
(PID.TID 0000.0001)    23 @      -99                            /* I = -2: 20 */
(PID.TID 0000.0001)  OB_Js = /* Southern OB local indices */
(PID.TID 0000.0001)    23 @      -99                            /* I = -2: 20 */
(PID.TID 0000.0001)  OB_Ie = /* Eastern OB local indices */
(PID.TID 0000.0001)    26 @      -99                            /* J = -2: 23 */
(PID.TID 0000.0001)  OB_Iw = /* Western OB local indices */
(PID.TID 0000.0001)    26 @      -99                            /* J = -2: 23 */
(PID.TID 0000.0001) ======== Tile bi=  10 , bj=   7 ========
(PID.TID 0000.0001)  OB_Jn = /* Northern OB local indices */
(PID.TID 0000.0001)    23 @      -99                            /* I = -2: 20 */
(PID.TID 0000.0001)  OB_Js = /* Southern OB local indices */
(PID.TID 0000.0001)    23 @      -99                            /* I = -2: 20 */
(PID.TID 0000.0001)  OB_Ie = /* Eastern OB local indices */
(PID.TID 0000.0001)    26 @      -99                            /* J = -2: 23 */
(PID.TID 0000.0001)  OB_Iw = /* Western OB local indices */
(PID.TID 0000.0001)    26 @      -99                            /* J = -2: 23 */
(PID.TID 0000.0001) ======== Tile bi=  11 , bj=   7 ========
(PID.TID 0000.0001)  OB_Jn = /* Northern OB local indices */
(PID.TID 0000.0001)    23 @      -99                            /* I = -2: 20 */
(PID.TID 0000.0001)  OB_Js = /* Southern OB local indices */
(PID.TID 0000.0001)    23 @      -99                            /* I = -2: 20 */
(PID.TID 0000.0001)  OB_Ie = /* Eastern OB local indices */
(PID.TID 0000.0001)    26 @      -99                            /* J = -2: 23 */
(PID.TID 0000.0001)  OB_Iw = /* Western OB local indices */
(PID.TID 0000.0001)    26 @      -99                            /* J = -2: 23 */
(PID.TID 0000.0001) ======== Tile bi=  12 , bj=   7 ========
(PID.TID 0000.0001)  OB_Jn = /* Northern OB local indices */
(PID.TID 0000.0001)    23 @      -99                            /* I = -2: 20 */
(PID.TID 0000.0001)  OB_Js = /* Southern OB local indices */
(PID.TID 0000.0001)    23 @      -99                            /* I = -2: 20 */
(PID.TID 0000.0001)  OB_Ie = /* Eastern OB local indices */
(PID.TID 0000.0001)    26 @      -99                            /* J = -2: 23 */
(PID.TID 0000.0001)  OB_Iw = /* Western OB local indices */
(PID.TID 0000.0001)    26 @      -99                            /* J = -2: 23 */
(PID.TID 0000.0001) ======== Tile bi=  13 , bj=   7 ========
(PID.TID 0000.0001)  OB_Jn = /* Northern OB local indices */
(PID.TID 0000.0001)    23 @      -99                            /* I = -2: 20 */
(PID.TID 0000.0001)  OB_Js = /* Southern OB local indices */
(PID.TID 0000.0001)    23 @      -99                            /* I = -2: 20 */
(PID.TID 0000.0001)  OB_Ie = /* Eastern OB local indices */
(PID.TID 0000.0001)    26 @      -99                            /* J = -2: 23 */
(PID.TID 0000.0001)  OB_Iw = /* Western OB local indices */
(PID.TID 0000.0001)    26 @      -99                            /* J = -2: 23 */
(PID.TID 0000.0001) ======== Tile bi=  14 , bj=   7 ========
(PID.TID 0000.0001)  OB_Jn = /* Northern OB local indices */
(PID.TID 0000.0001)    23 @      -99                            /* I = -2: 20 */
(PID.TID 0000.0001)  OB_Js = /* Southern OB local indices */
(PID.TID 0000.0001)    23 @      -99                            /* I = -2: 20 */
(PID.TID 0000.0001)  OB_Ie = /* Eastern OB local indices */
(PID.TID 0000.0001)    26 @      -99                            /* J = -2: 23 */
(PID.TID 0000.0001)  OB_Iw = /* Western OB local indices */
(PID.TID 0000.0001)    26 @      -99                            /* J = -2: 23 */
(PID.TID 0000.0001) ======== Tile bi=  15 , bj=   7 ========
(PID.TID 0000.0001)  OB_Jn = /* Northern OB local indices */
(PID.TID 0000.0001)    23 @      -99                            /* I = -2: 20 */
(PID.TID 0000.0001)  OB_Js = /* Southern OB local indices */
(PID.TID 0000.0001)    23 @      -99                            /* I = -2: 20 */
(PID.TID 0000.0001)  OB_Ie = /* Eastern OB local indices */
(PID.TID 0000.0001)    26 @      -99                            /* J = -2: 23 */
(PID.TID 0000.0001)  OB_Iw = /* Western OB local indices */
(PID.TID 0000.0001)    26 @      -99                            /* J = -2: 23 */
(PID.TID 0000.0001) ======== Tile bi=  16 , bj=   7 ========
(PID.TID 0000.0001)  OB_Jn = /* Northern OB local indices */
(PID.TID 0000.0001)    23 @      -99                            /* I = -2: 20 */
(PID.TID 0000.0001)  OB_Js = /* Southern OB local indices */
(PID.TID 0000.0001)    23 @      -99                            /* I = -2: 20 */
(PID.TID 0000.0001)  OB_Ie = /* Eastern OB local indices */
(PID.TID 0000.0001)    26 @      -99                            /* J = -2: 23 */
(PID.TID 0000.0001)  OB_Iw = /* Western OB local indices */
(PID.TID 0000.0001)    26 @      -99                            /* J = -2: 23 */
(PID.TID 0000.0001) ======== Tile bi=   1 , bj=   8 ========
(PID.TID 0000.0001)  OB_Jn = /* Northern OB local indices */
(PID.TID 0000.0001)    23 @      -99                            /* I = -2: 20 */
(PID.TID 0000.0001)  OB_Js = /* Southern OB local indices */
(PID.TID 0000.0001)    23 @      -99                            /* I = -2: 20 */
(PID.TID 0000.0001)  OB_Ie = /* Eastern OB local indices */
(PID.TID 0000.0001)    26 @      -99                            /* J = -2: 23 */
(PID.TID 0000.0001)  OB_Iw = /* Western OB local indices */
(PID.TID 0000.0001)    26 @      -99                            /* J = -2: 23 */
(PID.TID 0000.0001) ======== Tile bi=   2 , bj=   8 ========
(PID.TID 0000.0001)  OB_Jn = /* Northern OB local indices */
(PID.TID 0000.0001)    23 @      -99                            /* I = -2: 20 */
(PID.TID 0000.0001)  OB_Js = /* Southern OB local indices */
(PID.TID 0000.0001)    23 @      -99                            /* I = -2: 20 */
(PID.TID 0000.0001)  OB_Ie = /* Eastern OB local indices */
(PID.TID 0000.0001)    26 @      -99                            /* J = -2: 23 */
(PID.TID 0000.0001)  OB_Iw = /* Western OB local indices */
(PID.TID 0000.0001)    26 @      -99                            /* J = -2: 23 */
(PID.TID 0000.0001) ======== Tile bi=   3 , bj=   8 ========
(PID.TID 0000.0001)  OB_Jn = /* Northern OB local indices */
(PID.TID 0000.0001)    23 @      -99                            /* I = -2: 20 */
(PID.TID 0000.0001)  OB_Js = /* Southern OB local indices */
(PID.TID 0000.0001)    23 @      -99                            /* I = -2: 20 */
(PID.TID 0000.0001)  OB_Ie = /* Eastern OB local indices */
(PID.TID 0000.0001)    26 @      -99                            /* J = -2: 23 */
(PID.TID 0000.0001)  OB_Iw = /* Western OB local indices */
(PID.TID 0000.0001)    26 @      -99                            /* J = -2: 23 */
(PID.TID 0000.0001) ======== Tile bi=   4 , bj=   8 ========
(PID.TID 0000.0001)  OB_Jn = /* Northern OB local indices */
(PID.TID 0000.0001)    23 @      -99                            /* I = -2: 20 */
(PID.TID 0000.0001)  OB_Js = /* Southern OB local indices */
(PID.TID 0000.0001)    23 @      -99                            /* I = -2: 20 */
(PID.TID 0000.0001)  OB_Ie = /* Eastern OB local indices */
(PID.TID 0000.0001)    26 @      -99                            /* J = -2: 23 */
(PID.TID 0000.0001)  OB_Iw = /* Western OB local indices */
(PID.TID 0000.0001)    26 @      -99                            /* J = -2: 23 */
(PID.TID 0000.0001) ======== Tile bi=   5 , bj=   8 ========
(PID.TID 0000.0001)  OB_Jn = /* Northern OB local indices */
(PID.TID 0000.0001)    23 @      -99                            /* I = -2: 20 */
(PID.TID 0000.0001)  OB_Js = /* Southern OB local indices */
(PID.TID 0000.0001)    23 @      -99                            /* I = -2: 20 */
(PID.TID 0000.0001)  OB_Ie = /* Eastern OB local indices */
(PID.TID 0000.0001)    26 @      -99                            /* J = -2: 23 */
(PID.TID 0000.0001)  OB_Iw = /* Western OB local indices */
(PID.TID 0000.0001)    26 @      -99                            /* J = -2: 23 */
(PID.TID 0000.0001) ======== Tile bi=   6 , bj=   8 ========
(PID.TID 0000.0001)  OB_Jn = /* Northern OB local indices */
(PID.TID 0000.0001)    23 @      -99                            /* I = -2: 20 */
(PID.TID 0000.0001)  OB_Js = /* Southern OB local indices */
(PID.TID 0000.0001)    23 @      -99                            /* I = -2: 20 */
(PID.TID 0000.0001)  OB_Ie = /* Eastern OB local indices */
(PID.TID 0000.0001)    26 @      -99                            /* J = -2: 23 */
(PID.TID 0000.0001)  OB_Iw = /* Western OB local indices */
(PID.TID 0000.0001)    26 @      -99                            /* J = -2: 23 */
(PID.TID 0000.0001) ======== Tile bi=   7 , bj=   8 ========
(PID.TID 0000.0001)  OB_Jn = /* Northern OB local indices */
(PID.TID 0000.0001)    23 @      -99                            /* I = -2: 20 */
(PID.TID 0000.0001)  OB_Js = /* Southern OB local indices */
(PID.TID 0000.0001)    23 @      -99                            /* I = -2: 20 */
(PID.TID 0000.0001)  OB_Ie = /* Eastern OB local indices */
(PID.TID 0000.0001)    26 @      -99                            /* J = -2: 23 */
(PID.TID 0000.0001)  OB_Iw = /* Western OB local indices */
(PID.TID 0000.0001)    26 @      -99                            /* J = -2: 23 */
(PID.TID 0000.0001) ======== Tile bi=   8 , bj=   8 ========
(PID.TID 0000.0001)  OB_Jn = /* Northern OB local indices */
(PID.TID 0000.0001)    23 @      -99                            /* I = -2: 20 */
(PID.TID 0000.0001)  OB_Js = /* Southern OB local indices */
(PID.TID 0000.0001)    23 @      -99                            /* I = -2: 20 */
(PID.TID 0000.0001)  OB_Ie = /* Eastern OB local indices */
(PID.TID 0000.0001)    26 @      -99                            /* J = -2: 23 */
(PID.TID 0000.0001)  OB_Iw = /* Western OB local indices */
(PID.TID 0000.0001)    26 @      -99                            /* J = -2: 23 */
(PID.TID 0000.0001) ======== Tile bi=   9 , bj=   8 ========
(PID.TID 0000.0001)  OB_Jn = /* Northern OB local indices */
(PID.TID 0000.0001)    23 @      -99                            /* I = -2: 20 */
(PID.TID 0000.0001)  OB_Js = /* Southern OB local indices */
(PID.TID 0000.0001)    23 @      -99                            /* I = -2: 20 */
(PID.TID 0000.0001)  OB_Ie = /* Eastern OB local indices */
(PID.TID 0000.0001)    26 @      -99                            /* J = -2: 23 */
(PID.TID 0000.0001)  OB_Iw = /* Western OB local indices */
(PID.TID 0000.0001)    26 @      -99                            /* J = -2: 23 */
(PID.TID 0000.0001) ======== Tile bi=  10 , bj=   8 ========
(PID.TID 0000.0001)  OB_Jn = /* Northern OB local indices */
(PID.TID 0000.0001)    23 @      -99                            /* I = -2: 20 */
(PID.TID 0000.0001)  OB_Js = /* Southern OB local indices */
(PID.TID 0000.0001)    23 @      -99                            /* I = -2: 20 */
(PID.TID 0000.0001)  OB_Ie = /* Eastern OB local indices */
(PID.TID 0000.0001)    26 @      -99                            /* J = -2: 23 */
(PID.TID 0000.0001)  OB_Iw = /* Western OB local indices */
(PID.TID 0000.0001)    26 @      -99                            /* J = -2: 23 */
(PID.TID 0000.0001) ======== Tile bi=  11 , bj=   8 ========
(PID.TID 0000.0001)  OB_Jn = /* Northern OB local indices */
(PID.TID 0000.0001)    23 @      -99                            /* I = -2: 20 */
(PID.TID 0000.0001)  OB_Js = /* Southern OB local indices */
(PID.TID 0000.0001)    23 @      -99                            /* I = -2: 20 */
(PID.TID 0000.0001)  OB_Ie = /* Eastern OB local indices */
(PID.TID 0000.0001)    26 @      -99                            /* J = -2: 23 */
(PID.TID 0000.0001)  OB_Iw = /* Western OB local indices */
(PID.TID 0000.0001)    26 @      -99                            /* J = -2: 23 */
(PID.TID 0000.0001) ======== Tile bi=  12 , bj=   8 ========
(PID.TID 0000.0001)  OB_Jn = /* Northern OB local indices */
(PID.TID 0000.0001)    23 @      -99                            /* I = -2: 20 */
(PID.TID 0000.0001)  OB_Js = /* Southern OB local indices */
(PID.TID 0000.0001)    23 @      -99                            /* I = -2: 20 */
(PID.TID 0000.0001)  OB_Ie = /* Eastern OB local indices */
(PID.TID 0000.0001)    26 @      -99                            /* J = -2: 23 */
(PID.TID 0000.0001)  OB_Iw = /* Western OB local indices */
(PID.TID 0000.0001)    26 @      -99                            /* J = -2: 23 */
(PID.TID 0000.0001) ======== Tile bi=  13 , bj=   8 ========
(PID.TID 0000.0001)  OB_Jn = /* Northern OB local indices */
(PID.TID 0000.0001)    23 @      -99                            /* I = -2: 20 */
(PID.TID 0000.0001)  OB_Js = /* Southern OB local indices */
(PID.TID 0000.0001)    23 @      -99                            /* I = -2: 20 */
(PID.TID 0000.0001)  OB_Ie = /* Eastern OB local indices */
(PID.TID 0000.0001)    26 @      -99                            /* J = -2: 23 */
(PID.TID 0000.0001)  OB_Iw = /* Western OB local indices */
(PID.TID 0000.0001)    26 @      -99                            /* J = -2: 23 */
(PID.TID 0000.0001) ======== Tile bi=  14 , bj=   8 ========
(PID.TID 0000.0001)  OB_Jn = /* Northern OB local indices */
(PID.TID 0000.0001)    23 @      -99                            /* I = -2: 20 */
(PID.TID 0000.0001)  OB_Js = /* Southern OB local indices */
(PID.TID 0000.0001)    23 @      -99                            /* I = -2: 20 */
(PID.TID 0000.0001)  OB_Ie = /* Eastern OB local indices */
(PID.TID 0000.0001)    26 @      -99                            /* J = -2: 23 */
(PID.TID 0000.0001)  OB_Iw = /* Western OB local indices */
(PID.TID 0000.0001)    26 @      -99                            /* J = -2: 23 */
(PID.TID 0000.0001) ======== Tile bi=  15 , bj=   8 ========
(PID.TID 0000.0001)  OB_Jn = /* Northern OB local indices */
(PID.TID 0000.0001)    23 @      -99                            /* I = -2: 20 */
(PID.TID 0000.0001)  OB_Js = /* Southern OB local indices */
(PID.TID 0000.0001)    23 @      -99                            /* I = -2: 20 */
(PID.TID 0000.0001)  OB_Ie = /* Eastern OB local indices */
(PID.TID 0000.0001)    26 @      -99                            /* J = -2: 23 */
(PID.TID 0000.0001)  OB_Iw = /* Western OB local indices */
(PID.TID 0000.0001)    26 @      -99                            /* J = -2: 23 */
(PID.TID 0000.0001) ======== Tile bi=  16 , bj=   8 ========
(PID.TID 0000.0001)  OB_Jn = /* Northern OB local indices */
(PID.TID 0000.0001)    23 @      -99                            /* I = -2: 20 */
(PID.TID 0000.0001)  OB_Js = /* Southern OB local indices */
(PID.TID 0000.0001)    23 @      -99                            /* I = -2: 20 */
(PID.TID 0000.0001)  OB_Ie = /* Eastern OB local indices */
(PID.TID 0000.0001)    26 @      -99                            /* J = -2: 23 */
(PID.TID 0000.0001)  OB_Iw = /* Western OB local indices */
(PID.TID 0000.0001)    26 @      -99                            /* J = -2: 23 */
(PID.TID 0000.0001) ======== Tile bi=   1 , bj=   9 ========
(PID.TID 0000.0001)  OB_Jn = /* Northern OB local indices */
(PID.TID 0000.0001)    23 @      -99                            /* I = -2: 20 */
(PID.TID 0000.0001)  OB_Js = /* Southern OB local indices */
(PID.TID 0000.0001)    23 @      -99                            /* I = -2: 20 */
(PID.TID 0000.0001)  OB_Ie = /* Eastern OB local indices */
(PID.TID 0000.0001)    26 @      -99                            /* J = -2: 23 */
(PID.TID 0000.0001)  OB_Iw = /* Western OB local indices */
(PID.TID 0000.0001)    26 @      -99                            /* J = -2: 23 */
(PID.TID 0000.0001) ======== Tile bi=   2 , bj=   9 ========
(PID.TID 0000.0001)  OB_Jn = /* Northern OB local indices */
(PID.TID 0000.0001)    23 @      -99                            /* I = -2: 20 */
(PID.TID 0000.0001)  OB_Js = /* Southern OB local indices */
(PID.TID 0000.0001)    23 @      -99                            /* I = -2: 20 */
(PID.TID 0000.0001)  OB_Ie = /* Eastern OB local indices */
(PID.TID 0000.0001)    26 @      -99                            /* J = -2: 23 */
(PID.TID 0000.0001)  OB_Iw = /* Western OB local indices */
(PID.TID 0000.0001)    26 @      -99                            /* J = -2: 23 */
(PID.TID 0000.0001) ======== Tile bi=   3 , bj=   9 ========
(PID.TID 0000.0001)  OB_Jn = /* Northern OB local indices */
(PID.TID 0000.0001)    23 @      -99                            /* I = -2: 20 */
(PID.TID 0000.0001)  OB_Js = /* Southern OB local indices */
(PID.TID 0000.0001)    23 @      -99                            /* I = -2: 20 */
(PID.TID 0000.0001)  OB_Ie = /* Eastern OB local indices */
(PID.TID 0000.0001)    26 @      -99                            /* J = -2: 23 */
(PID.TID 0000.0001)  OB_Iw = /* Western OB local indices */
(PID.TID 0000.0001)    26 @      -99                            /* J = -2: 23 */
(PID.TID 0000.0001) ======== Tile bi=   4 , bj=   9 ========
(PID.TID 0000.0001)  OB_Jn = /* Northern OB local indices */
(PID.TID 0000.0001)    23 @      -99                            /* I = -2: 20 */
(PID.TID 0000.0001)  OB_Js = /* Southern OB local indices */
(PID.TID 0000.0001)    23 @      -99                            /* I = -2: 20 */
(PID.TID 0000.0001)  OB_Ie = /* Eastern OB local indices */
(PID.TID 0000.0001)    26 @      -99                            /* J = -2: 23 */
(PID.TID 0000.0001)  OB_Iw = /* Western OB local indices */
(PID.TID 0000.0001)    26 @      -99                            /* J = -2: 23 */
(PID.TID 0000.0001) ======== Tile bi=   5 , bj=   9 ========
(PID.TID 0000.0001)  OB_Jn = /* Northern OB local indices */
(PID.TID 0000.0001)    23 @      -99                            /* I = -2: 20 */
(PID.TID 0000.0001)  OB_Js = /* Southern OB local indices */
(PID.TID 0000.0001)    23 @      -99                            /* I = -2: 20 */
(PID.TID 0000.0001)  OB_Ie = /* Eastern OB local indices */
(PID.TID 0000.0001)    26 @      -99                            /* J = -2: 23 */
(PID.TID 0000.0001)  OB_Iw = /* Western OB local indices */
(PID.TID 0000.0001)    26 @      -99                            /* J = -2: 23 */
(PID.TID 0000.0001) ======== Tile bi=   6 , bj=   9 ========
(PID.TID 0000.0001)  OB_Jn = /* Northern OB local indices */
(PID.TID 0000.0001)    23 @      -99                            /* I = -2: 20 */
(PID.TID 0000.0001)  OB_Js = /* Southern OB local indices */
(PID.TID 0000.0001)    23 @      -99                            /* I = -2: 20 */
(PID.TID 0000.0001)  OB_Ie = /* Eastern OB local indices */
(PID.TID 0000.0001)    26 @      -99                            /* J = -2: 23 */
(PID.TID 0000.0001)  OB_Iw = /* Western OB local indices */
(PID.TID 0000.0001)    26 @      -99                            /* J = -2: 23 */
(PID.TID 0000.0001) ======== Tile bi=   7 , bj=   9 ========
(PID.TID 0000.0001)  OB_Jn = /* Northern OB local indices */
(PID.TID 0000.0001)    23 @      -99                            /* I = -2: 20 */
(PID.TID 0000.0001)  OB_Js = /* Southern OB local indices */
(PID.TID 0000.0001)    23 @      -99                            /* I = -2: 20 */
(PID.TID 0000.0001)  OB_Ie = /* Eastern OB local indices */
(PID.TID 0000.0001)    26 @      -99                            /* J = -2: 23 */
(PID.TID 0000.0001)  OB_Iw = /* Western OB local indices */
(PID.TID 0000.0001)    26 @      -99                            /* J = -2: 23 */
(PID.TID 0000.0001) ======== Tile bi=   8 , bj=   9 ========
(PID.TID 0000.0001)  OB_Jn = /* Northern OB local indices */
(PID.TID 0000.0001)    23 @      -99                            /* I = -2: 20 */
(PID.TID 0000.0001)  OB_Js = /* Southern OB local indices */
(PID.TID 0000.0001)    23 @      -99                            /* I = -2: 20 */
(PID.TID 0000.0001)  OB_Ie = /* Eastern OB local indices */
(PID.TID 0000.0001)    26 @      -99                            /* J = -2: 23 */
(PID.TID 0000.0001)  OB_Iw = /* Western OB local indices */
(PID.TID 0000.0001)    26 @      -99                            /* J = -2: 23 */
(PID.TID 0000.0001) ======== Tile bi=   9 , bj=   9 ========
(PID.TID 0000.0001)  OB_Jn = /* Northern OB local indices */
(PID.TID 0000.0001)    23 @      -99                            /* I = -2: 20 */
(PID.TID 0000.0001)  OB_Js = /* Southern OB local indices */
(PID.TID 0000.0001)    23 @      -99                            /* I = -2: 20 */
(PID.TID 0000.0001)  OB_Ie = /* Eastern OB local indices */
(PID.TID 0000.0001)    26 @      -99                            /* J = -2: 23 */
(PID.TID 0000.0001)  OB_Iw = /* Western OB local indices */
(PID.TID 0000.0001)    26 @      -99                            /* J = -2: 23 */
(PID.TID 0000.0001) ======== Tile bi=  10 , bj=   9 ========
(PID.TID 0000.0001)  OB_Jn = /* Northern OB local indices */
(PID.TID 0000.0001)    23 @      -99                            /* I = -2: 20 */
(PID.TID 0000.0001)  OB_Js = /* Southern OB local indices */
(PID.TID 0000.0001)    23 @      -99                            /* I = -2: 20 */
(PID.TID 0000.0001)  OB_Ie = /* Eastern OB local indices */
(PID.TID 0000.0001)    26 @      -99                            /* J = -2: 23 */
(PID.TID 0000.0001)  OB_Iw = /* Western OB local indices */
(PID.TID 0000.0001)    26 @      -99                            /* J = -2: 23 */
(PID.TID 0000.0001) ======== Tile bi=  11 , bj=   9 ========
(PID.TID 0000.0001)  OB_Jn = /* Northern OB local indices */
(PID.TID 0000.0001)    23 @      -99                            /* I = -2: 20 */
(PID.TID 0000.0001)  OB_Js = /* Southern OB local indices */
(PID.TID 0000.0001)    23 @      -99                            /* I = -2: 20 */
(PID.TID 0000.0001)  OB_Ie = /* Eastern OB local indices */
(PID.TID 0000.0001)    26 @      -99                            /* J = -2: 23 */
(PID.TID 0000.0001)  OB_Iw = /* Western OB local indices */
(PID.TID 0000.0001)    26 @      -99                            /* J = -2: 23 */
(PID.TID 0000.0001) ======== Tile bi=  12 , bj=   9 ========
(PID.TID 0000.0001)  OB_Jn = /* Northern OB local indices */
(PID.TID 0000.0001)    23 @      -99                            /* I = -2: 20 */
(PID.TID 0000.0001)  OB_Js = /* Southern OB local indices */
(PID.TID 0000.0001)    23 @      -99                            /* I = -2: 20 */
(PID.TID 0000.0001)  OB_Ie = /* Eastern OB local indices */
(PID.TID 0000.0001)    26 @      -99                            /* J = -2: 23 */
(PID.TID 0000.0001)  OB_Iw = /* Western OB local indices */
(PID.TID 0000.0001)    26 @      -99                            /* J = -2: 23 */
(PID.TID 0000.0001) ======== Tile bi=  13 , bj=   9 ========
(PID.TID 0000.0001)  OB_Jn = /* Northern OB local indices */
(PID.TID 0000.0001)    23 @      -99                            /* I = -2: 20 */
(PID.TID 0000.0001)  OB_Js = /* Southern OB local indices */
(PID.TID 0000.0001)    23 @      -99                            /* I = -2: 20 */
(PID.TID 0000.0001)  OB_Ie = /* Eastern OB local indices */
(PID.TID 0000.0001)    26 @      -99                            /* J = -2: 23 */
(PID.TID 0000.0001)  OB_Iw = /* Western OB local indices */
(PID.TID 0000.0001)    26 @      -99                            /* J = -2: 23 */
(PID.TID 0000.0001) ======== Tile bi=  14 , bj=   9 ========
(PID.TID 0000.0001)  OB_Jn = /* Northern OB local indices */
(PID.TID 0000.0001)    23 @      -99                            /* I = -2: 20 */
(PID.TID 0000.0001)  OB_Js = /* Southern OB local indices */
(PID.TID 0000.0001)    23 @      -99                            /* I = -2: 20 */
(PID.TID 0000.0001)  OB_Ie = /* Eastern OB local indices */
(PID.TID 0000.0001)    26 @      -99                            /* J = -2: 23 */
(PID.TID 0000.0001)  OB_Iw = /* Western OB local indices */
(PID.TID 0000.0001)    26 @      -99                            /* J = -2: 23 */
(PID.TID 0000.0001) ======== Tile bi=  15 , bj=   9 ========
(PID.TID 0000.0001)  OB_Jn = /* Northern OB local indices */
(PID.TID 0000.0001)    23 @      -99                            /* I = -2: 20 */
(PID.TID 0000.0001)  OB_Js = /* Southern OB local indices */
(PID.TID 0000.0001)    23 @      -99                            /* I = -2: 20 */
(PID.TID 0000.0001)  OB_Ie = /* Eastern OB local indices */
(PID.TID 0000.0001)    26 @      -99                            /* J = -2: 23 */
(PID.TID 0000.0001)  OB_Iw = /* Western OB local indices */
(PID.TID 0000.0001)    26 @      -99                            /* J = -2: 23 */
(PID.TID 0000.0001) ======== Tile bi=  16 , bj=   9 ========
(PID.TID 0000.0001)  OB_Jn = /* Northern OB local indices */
(PID.TID 0000.0001)    23 @      -99                            /* I = -2: 20 */
(PID.TID 0000.0001)  OB_Js = /* Southern OB local indices */
(PID.TID 0000.0001)    23 @      -99                            /* I = -2: 20 */
(PID.TID 0000.0001)  OB_Ie = /* Eastern OB local indices */
(PID.TID 0000.0001)    26 @      -99                            /* J = -2: 23 */
(PID.TID 0000.0001)  OB_Iw = /* Western OB local indices */
(PID.TID 0000.0001)    26 @      -99                            /* J = -2: 23 */
(PID.TID 0000.0001) ======== Tile bi=   1 , bj=  10 ========
(PID.TID 0000.0001)  OB_Jn = /* Northern OB local indices */
(PID.TID 0000.0001)    23 @      -99                            /* I = -2: 20 */
(PID.TID 0000.0001)  OB_Js = /* Southern OB local indices */
(PID.TID 0000.0001)    23 @      -99                            /* I = -2: 20 */
(PID.TID 0000.0001)  OB_Ie = /* Eastern OB local indices */
(PID.TID 0000.0001)    26 @      -99                            /* J = -2: 23 */
(PID.TID 0000.0001)  OB_Iw = /* Western OB local indices */
(PID.TID 0000.0001)    26 @      -99                            /* J = -2: 23 */
(PID.TID 0000.0001) ======== Tile bi=   2 , bj=  10 ========
(PID.TID 0000.0001)  OB_Jn = /* Northern OB local indices */
(PID.TID 0000.0001)    23 @      -99                            /* I = -2: 20 */
(PID.TID 0000.0001)  OB_Js = /* Southern OB local indices */
(PID.TID 0000.0001)    23 @      -99                            /* I = -2: 20 */
(PID.TID 0000.0001)  OB_Ie = /* Eastern OB local indices */
(PID.TID 0000.0001)    26 @      -99                            /* J = -2: 23 */
(PID.TID 0000.0001)  OB_Iw = /* Western OB local indices */
(PID.TID 0000.0001)    26 @      -99                            /* J = -2: 23 */
(PID.TID 0000.0001) ======== Tile bi=   3 , bj=  10 ========
(PID.TID 0000.0001)  OB_Jn = /* Northern OB local indices */
(PID.TID 0000.0001)    23 @      -99                            /* I = -2: 20 */
(PID.TID 0000.0001)  OB_Js = /* Southern OB local indices */
(PID.TID 0000.0001)    23 @      -99                            /* I = -2: 20 */
(PID.TID 0000.0001)  OB_Ie = /* Eastern OB local indices */
(PID.TID 0000.0001)    26 @      -99                            /* J = -2: 23 */
(PID.TID 0000.0001)  OB_Iw = /* Western OB local indices */
(PID.TID 0000.0001)    26 @      -99                            /* J = -2: 23 */
(PID.TID 0000.0001) ======== Tile bi=   4 , bj=  10 ========
(PID.TID 0000.0001)  OB_Jn = /* Northern OB local indices */
(PID.TID 0000.0001)    23 @      -99                            /* I = -2: 20 */
(PID.TID 0000.0001)  OB_Js = /* Southern OB local indices */
(PID.TID 0000.0001)    23 @      -99                            /* I = -2: 20 */
(PID.TID 0000.0001)  OB_Ie = /* Eastern OB local indices */
(PID.TID 0000.0001)    26 @      -99                            /* J = -2: 23 */
(PID.TID 0000.0001)  OB_Iw = /* Western OB local indices */
(PID.TID 0000.0001)    26 @      -99                            /* J = -2: 23 */
(PID.TID 0000.0001) ======== Tile bi=   5 , bj=  10 ========
(PID.TID 0000.0001)  OB_Jn = /* Northern OB local indices */
(PID.TID 0000.0001)    23 @      -99                            /* I = -2: 20 */
(PID.TID 0000.0001)  OB_Js = /* Southern OB local indices */
(PID.TID 0000.0001)    23 @      -99                            /* I = -2: 20 */
(PID.TID 0000.0001)  OB_Ie = /* Eastern OB local indices */
(PID.TID 0000.0001)    26 @      -99                            /* J = -2: 23 */
(PID.TID 0000.0001)  OB_Iw = /* Western OB local indices */
(PID.TID 0000.0001)    26 @      -99                            /* J = -2: 23 */
(PID.TID 0000.0001) ======== Tile bi=   6 , bj=  10 ========
(PID.TID 0000.0001)  OB_Jn = /* Northern OB local indices */
(PID.TID 0000.0001)    23 @      -99                            /* I = -2: 20 */
(PID.TID 0000.0001)  OB_Js = /* Southern OB local indices */
(PID.TID 0000.0001)    23 @      -99                            /* I = -2: 20 */
(PID.TID 0000.0001)  OB_Ie = /* Eastern OB local indices */
(PID.TID 0000.0001)    26 @      -99                            /* J = -2: 23 */
(PID.TID 0000.0001)  OB_Iw = /* Western OB local indices */
(PID.TID 0000.0001)    26 @      -99                            /* J = -2: 23 */
(PID.TID 0000.0001) ======== Tile bi=   7 , bj=  10 ========
(PID.TID 0000.0001)  OB_Jn = /* Northern OB local indices */
(PID.TID 0000.0001)    23 @      -99                            /* I = -2: 20 */
(PID.TID 0000.0001)  OB_Js = /* Southern OB local indices */
(PID.TID 0000.0001)    23 @      -99                            /* I = -2: 20 */
(PID.TID 0000.0001)  OB_Ie = /* Eastern OB local indices */
(PID.TID 0000.0001)    26 @      -99                            /* J = -2: 23 */
(PID.TID 0000.0001)  OB_Iw = /* Western OB local indices */
(PID.TID 0000.0001)    26 @      -99                            /* J = -2: 23 */
(PID.TID 0000.0001) ======== Tile bi=   8 , bj=  10 ========
(PID.TID 0000.0001)  OB_Jn = /* Northern OB local indices */
(PID.TID 0000.0001)    23 @      -99                            /* I = -2: 20 */
(PID.TID 0000.0001)  OB_Js = /* Southern OB local indices */
(PID.TID 0000.0001)    23 @      -99                            /* I = -2: 20 */
(PID.TID 0000.0001)  OB_Ie = /* Eastern OB local indices */
(PID.TID 0000.0001)    26 @      -99                            /* J = -2: 23 */
(PID.TID 0000.0001)  OB_Iw = /* Western OB local indices */
(PID.TID 0000.0001)    26 @      -99                            /* J = -2: 23 */
(PID.TID 0000.0001) ======== Tile bi=   9 , bj=  10 ========
(PID.TID 0000.0001)  OB_Jn = /* Northern OB local indices */
(PID.TID 0000.0001)    23 @      -99                            /* I = -2: 20 */
(PID.TID 0000.0001)  OB_Js = /* Southern OB local indices */
(PID.TID 0000.0001)    23 @      -99                            /* I = -2: 20 */
(PID.TID 0000.0001)  OB_Ie = /* Eastern OB local indices */
(PID.TID 0000.0001)    26 @      -99                            /* J = -2: 23 */
(PID.TID 0000.0001)  OB_Iw = /* Western OB local indices */
(PID.TID 0000.0001)    26 @      -99                            /* J = -2: 23 */
(PID.TID 0000.0001) ======== Tile bi=  10 , bj=  10 ========
(PID.TID 0000.0001)  OB_Jn = /* Northern OB local indices */
(PID.TID 0000.0001)    23 @      -99                            /* I = -2: 20 */
(PID.TID 0000.0001)  OB_Js = /* Southern OB local indices */
(PID.TID 0000.0001)    23 @      -99                            /* I = -2: 20 */
(PID.TID 0000.0001)  OB_Ie = /* Eastern OB local indices */
(PID.TID 0000.0001)    26 @      -99                            /* J = -2: 23 */
(PID.TID 0000.0001)  OB_Iw = /* Western OB local indices */
(PID.TID 0000.0001)    26 @      -99                            /* J = -2: 23 */
(PID.TID 0000.0001) ======== Tile bi=  11 , bj=  10 ========
(PID.TID 0000.0001)  OB_Jn = /* Northern OB local indices */
(PID.TID 0000.0001)    23 @      -99                            /* I = -2: 20 */
(PID.TID 0000.0001)  OB_Js = /* Southern OB local indices */
(PID.TID 0000.0001)    23 @      -99                            /* I = -2: 20 */
(PID.TID 0000.0001)  OB_Ie = /* Eastern OB local indices */
(PID.TID 0000.0001)    26 @      -99                            /* J = -2: 23 */
(PID.TID 0000.0001)  OB_Iw = /* Western OB local indices */
(PID.TID 0000.0001)    26 @      -99                            /* J = -2: 23 */
(PID.TID 0000.0001) ======== Tile bi=  12 , bj=  10 ========
(PID.TID 0000.0001)  OB_Jn = /* Northern OB local indices */
(PID.TID 0000.0001)    23 @      -99                            /* I = -2: 20 */
(PID.TID 0000.0001)  OB_Js = /* Southern OB local indices */
(PID.TID 0000.0001)    23 @      -99                            /* I = -2: 20 */
(PID.TID 0000.0001)  OB_Ie = /* Eastern OB local indices */
(PID.TID 0000.0001)    26 @      -99                            /* J = -2: 23 */
(PID.TID 0000.0001)  OB_Iw = /* Western OB local indices */
(PID.TID 0000.0001)    26 @      -99                            /* J = -2: 23 */
(PID.TID 0000.0001) ======== Tile bi=  13 , bj=  10 ========
(PID.TID 0000.0001)  OB_Jn = /* Northern OB local indices */
(PID.TID 0000.0001)    23 @      -99                            /* I = -2: 20 */
(PID.TID 0000.0001)  OB_Js = /* Southern OB local indices */
(PID.TID 0000.0001)    23 @      -99                            /* I = -2: 20 */
(PID.TID 0000.0001)  OB_Ie = /* Eastern OB local indices */
(PID.TID 0000.0001)    26 @      -99                            /* J = -2: 23 */
(PID.TID 0000.0001)  OB_Iw = /* Western OB local indices */
(PID.TID 0000.0001)    26 @      -99                            /* J = -2: 23 */
(PID.TID 0000.0001) ======== Tile bi=  14 , bj=  10 ========
(PID.TID 0000.0001)  OB_Jn = /* Northern OB local indices */
(PID.TID 0000.0001)    23 @      -99                            /* I = -2: 20 */
(PID.TID 0000.0001)  OB_Js = /* Southern OB local indices */
(PID.TID 0000.0001)    23 @      -99                            /* I = -2: 20 */
(PID.TID 0000.0001)  OB_Ie = /* Eastern OB local indices */
(PID.TID 0000.0001)    26 @      -99                            /* J = -2: 23 */
(PID.TID 0000.0001)  OB_Iw = /* Western OB local indices */
(PID.TID 0000.0001)    26 @      -99                            /* J = -2: 23 */
(PID.TID 0000.0001) ======== Tile bi=  15 , bj=  10 ========
(PID.TID 0000.0001)  OB_Jn = /* Northern OB local indices */
(PID.TID 0000.0001)    23 @      -99                            /* I = -2: 20 */
(PID.TID 0000.0001)  OB_Js = /* Southern OB local indices */
(PID.TID 0000.0001)    23 @      -99                            /* I = -2: 20 */
(PID.TID 0000.0001)  OB_Ie = /* Eastern OB local indices */
(PID.TID 0000.0001)    26 @      -99                            /* J = -2: 23 */
(PID.TID 0000.0001)  OB_Iw = /* Western OB local indices */
(PID.TID 0000.0001)    26 @      -99                            /* J = -2: 23 */
(PID.TID 0000.0001) ======== Tile bi=  16 , bj=  10 ========
(PID.TID 0000.0001)  OB_Jn = /* Northern OB local indices */
(PID.TID 0000.0001)    23 @      -99                            /* I = -2: 20 */
(PID.TID 0000.0001)  OB_Js = /* Southern OB local indices */
(PID.TID 0000.0001)    23 @      -99                            /* I = -2: 20 */
(PID.TID 0000.0001)  OB_Ie = /* Eastern OB local indices */
(PID.TID 0000.0001)    26 @      -99                            /* J = -2: 23 */
(PID.TID 0000.0001)  OB_Iw = /* Western OB local indices */
(PID.TID 0000.0001)    26 @      -99                            /* J = -2: 23 */
(PID.TID 0000.0001) ======== Tile bi=   1 , bj=  11 ========
(PID.TID 0000.0001)  OB_Jn = /* Northern OB local indices */
(PID.TID 0000.0001)    23 @      -99                            /* I = -2: 20 */
(PID.TID 0000.0001)  OB_Js = /* Southern OB local indices */
(PID.TID 0000.0001)    23 @      -99                            /* I = -2: 20 */
(PID.TID 0000.0001)  OB_Ie = /* Eastern OB local indices */
(PID.TID 0000.0001)    26 @      -99                            /* J = -2: 23 */
(PID.TID 0000.0001)  OB_Iw = /* Western OB local indices */
(PID.TID 0000.0001)    26 @      -99                            /* J = -2: 23 */
(PID.TID 0000.0001) ======== Tile bi=   2 , bj=  11 ========
(PID.TID 0000.0001)  OB_Jn = /* Northern OB local indices */
(PID.TID 0000.0001)    23 @      -99                            /* I = -2: 20 */
(PID.TID 0000.0001)  OB_Js = /* Southern OB local indices */
(PID.TID 0000.0001)    23 @      -99                            /* I = -2: 20 */
(PID.TID 0000.0001)  OB_Ie = /* Eastern OB local indices */
(PID.TID 0000.0001)    26 @      -99                            /* J = -2: 23 */
(PID.TID 0000.0001)  OB_Iw = /* Western OB local indices */
(PID.TID 0000.0001)    26 @      -99                            /* J = -2: 23 */
(PID.TID 0000.0001) ======== Tile bi=   3 , bj=  11 ========
(PID.TID 0000.0001)  OB_Jn = /* Northern OB local indices */
(PID.TID 0000.0001)    23 @      -99                            /* I = -2: 20 */
(PID.TID 0000.0001)  OB_Js = /* Southern OB local indices */
(PID.TID 0000.0001)    23 @      -99                            /* I = -2: 20 */
(PID.TID 0000.0001)  OB_Ie = /* Eastern OB local indices */
(PID.TID 0000.0001)    26 @      -99                            /* J = -2: 23 */
(PID.TID 0000.0001)  OB_Iw = /* Western OB local indices */
(PID.TID 0000.0001)    26 @      -99                            /* J = -2: 23 */
(PID.TID 0000.0001) ======== Tile bi=   4 , bj=  11 ========
(PID.TID 0000.0001)  OB_Jn = /* Northern OB local indices */
(PID.TID 0000.0001)    23 @      -99                            /* I = -2: 20 */
(PID.TID 0000.0001)  OB_Js = /* Southern OB local indices */
(PID.TID 0000.0001)    23 @      -99                            /* I = -2: 20 */
(PID.TID 0000.0001)  OB_Ie = /* Eastern OB local indices */
(PID.TID 0000.0001)    26 @      -99                            /* J = -2: 23 */
(PID.TID 0000.0001)  OB_Iw = /* Western OB local indices */
(PID.TID 0000.0001)    26 @      -99                            /* J = -2: 23 */
(PID.TID 0000.0001) ======== Tile bi=   5 , bj=  11 ========
(PID.TID 0000.0001)  OB_Jn = /* Northern OB local indices */
(PID.TID 0000.0001)    23 @      -99                            /* I = -2: 20 */
(PID.TID 0000.0001)  OB_Js = /* Southern OB local indices */
(PID.TID 0000.0001)    23 @      -99                            /* I = -2: 20 */
(PID.TID 0000.0001)  OB_Ie = /* Eastern OB local indices */
(PID.TID 0000.0001)    26 @      -99                            /* J = -2: 23 */
(PID.TID 0000.0001)  OB_Iw = /* Western OB local indices */
(PID.TID 0000.0001)    26 @      -99                            /* J = -2: 23 */
(PID.TID 0000.0001) ======== Tile bi=   6 , bj=  11 ========
(PID.TID 0000.0001)  OB_Jn = /* Northern OB local indices */
(PID.TID 0000.0001)    23 @      -99                            /* I = -2: 20 */
(PID.TID 0000.0001)  OB_Js = /* Southern OB local indices */
(PID.TID 0000.0001)    23 @      -99                            /* I = -2: 20 */
(PID.TID 0000.0001)  OB_Ie = /* Eastern OB local indices */
(PID.TID 0000.0001)    26 @      -99                            /* J = -2: 23 */
(PID.TID 0000.0001)  OB_Iw = /* Western OB local indices */
(PID.TID 0000.0001)    26 @      -99                            /* J = -2: 23 */
(PID.TID 0000.0001) ======== Tile bi=   7 , bj=  11 ========
(PID.TID 0000.0001)  OB_Jn = /* Northern OB local indices */
(PID.TID 0000.0001)    23 @      -99                            /* I = -2: 20 */
(PID.TID 0000.0001)  OB_Js = /* Southern OB local indices */
(PID.TID 0000.0001)    23 @      -99                            /* I = -2: 20 */
(PID.TID 0000.0001)  OB_Ie = /* Eastern OB local indices */
(PID.TID 0000.0001)    26 @      -99                            /* J = -2: 23 */
(PID.TID 0000.0001)  OB_Iw = /* Western OB local indices */
(PID.TID 0000.0001)    26 @      -99                            /* J = -2: 23 */
(PID.TID 0000.0001) ======== Tile bi=   8 , bj=  11 ========
(PID.TID 0000.0001)  OB_Jn = /* Northern OB local indices */
(PID.TID 0000.0001)    23 @      -99                            /* I = -2: 20 */
(PID.TID 0000.0001)  OB_Js = /* Southern OB local indices */
(PID.TID 0000.0001)    23 @      -99                            /* I = -2: 20 */
(PID.TID 0000.0001)  OB_Ie = /* Eastern OB local indices */
(PID.TID 0000.0001)    26 @      -99                            /* J = -2: 23 */
(PID.TID 0000.0001)  OB_Iw = /* Western OB local indices */
(PID.TID 0000.0001)    26 @      -99                            /* J = -2: 23 */
(PID.TID 0000.0001) ======== Tile bi=   9 , bj=  11 ========
(PID.TID 0000.0001)  OB_Jn = /* Northern OB local indices */
(PID.TID 0000.0001)    23 @      -99                            /* I = -2: 20 */
(PID.TID 0000.0001)  OB_Js = /* Southern OB local indices */
(PID.TID 0000.0001)    23 @      -99                            /* I = -2: 20 */
(PID.TID 0000.0001)  OB_Ie = /* Eastern OB local indices */
(PID.TID 0000.0001)    26 @      -99                            /* J = -2: 23 */
(PID.TID 0000.0001)  OB_Iw = /* Western OB local indices */
(PID.TID 0000.0001)    26 @      -99                            /* J = -2: 23 */
(PID.TID 0000.0001) ======== Tile bi=  10 , bj=  11 ========
(PID.TID 0000.0001)  OB_Jn = /* Northern OB local indices */
(PID.TID 0000.0001)    23 @      -99                            /* I = -2: 20 */
(PID.TID 0000.0001)  OB_Js = /* Southern OB local indices */
(PID.TID 0000.0001)    23 @      -99                            /* I = -2: 20 */
(PID.TID 0000.0001)  OB_Ie = /* Eastern OB local indices */
(PID.TID 0000.0001)    26 @      -99                            /* J = -2: 23 */
(PID.TID 0000.0001)  OB_Iw = /* Western OB local indices */
(PID.TID 0000.0001)    26 @      -99                            /* J = -2: 23 */
(PID.TID 0000.0001) ======== Tile bi=  11 , bj=  11 ========
(PID.TID 0000.0001)  OB_Jn = /* Northern OB local indices */
(PID.TID 0000.0001)    23 @      -99                            /* I = -2: 20 */
(PID.TID 0000.0001)  OB_Js = /* Southern OB local indices */
(PID.TID 0000.0001)    23 @      -99                            /* I = -2: 20 */
(PID.TID 0000.0001)  OB_Ie = /* Eastern OB local indices */
(PID.TID 0000.0001)    26 @      -99                            /* J = -2: 23 */
(PID.TID 0000.0001)  OB_Iw = /* Western OB local indices */
(PID.TID 0000.0001)    26 @      -99                            /* J = -2: 23 */
(PID.TID 0000.0001) ======== Tile bi=  12 , bj=  11 ========
(PID.TID 0000.0001)  OB_Jn = /* Northern OB local indices */
(PID.TID 0000.0001)    23 @      -99                            /* I = -2: 20 */
(PID.TID 0000.0001)  OB_Js = /* Southern OB local indices */
(PID.TID 0000.0001)    23 @      -99                            /* I = -2: 20 */
(PID.TID 0000.0001)  OB_Ie = /* Eastern OB local indices */
(PID.TID 0000.0001)    26 @      -99                            /* J = -2: 23 */
(PID.TID 0000.0001)  OB_Iw = /* Western OB local indices */
(PID.TID 0000.0001)    26 @      -99                            /* J = -2: 23 */
(PID.TID 0000.0001) ======== Tile bi=  13 , bj=  11 ========
(PID.TID 0000.0001)  OB_Jn = /* Northern OB local indices */
(PID.TID 0000.0001)    23 @      -99                            /* I = -2: 20 */
(PID.TID 0000.0001)  OB_Js = /* Southern OB local indices */
(PID.TID 0000.0001)    23 @      -99                            /* I = -2: 20 */
(PID.TID 0000.0001)  OB_Ie = /* Eastern OB local indices */
(PID.TID 0000.0001)    26 @      -99                            /* J = -2: 23 */
(PID.TID 0000.0001)  OB_Iw = /* Western OB local indices */
(PID.TID 0000.0001)    26 @      -99                            /* J = -2: 23 */
(PID.TID 0000.0001) ======== Tile bi=  14 , bj=  11 ========
(PID.TID 0000.0001)  OB_Jn = /* Northern OB local indices */
(PID.TID 0000.0001)    23 @      -99                            /* I = -2: 20 */
(PID.TID 0000.0001)  OB_Js = /* Southern OB local indices */
(PID.TID 0000.0001)    23 @      -99                            /* I = -2: 20 */
(PID.TID 0000.0001)  OB_Ie = /* Eastern OB local indices */
(PID.TID 0000.0001)    26 @      -99                            /* J = -2: 23 */
(PID.TID 0000.0001)  OB_Iw = /* Western OB local indices */
(PID.TID 0000.0001)    26 @      -99                            /* J = -2: 23 */
(PID.TID 0000.0001) ======== Tile bi=  15 , bj=  11 ========
(PID.TID 0000.0001)  OB_Jn = /* Northern OB local indices */
(PID.TID 0000.0001)    23 @      -99                            /* I = -2: 20 */
(PID.TID 0000.0001)  OB_Js = /* Southern OB local indices */
(PID.TID 0000.0001)    23 @      -99                            /* I = -2: 20 */
(PID.TID 0000.0001)  OB_Ie = /* Eastern OB local indices */
(PID.TID 0000.0001)    26 @      -99                            /* J = -2: 23 */
(PID.TID 0000.0001)  OB_Iw = /* Western OB local indices */
(PID.TID 0000.0001)    26 @      -99                            /* J = -2: 23 */
(PID.TID 0000.0001) ======== Tile bi=  16 , bj=  11 ========
(PID.TID 0000.0001)  OB_Jn = /* Northern OB local indices */
(PID.TID 0000.0001)    23 @      -99                            /* I = -2: 20 */
(PID.TID 0000.0001)  OB_Js = /* Southern OB local indices */
(PID.TID 0000.0001)    23 @      -99                            /* I = -2: 20 */
(PID.TID 0000.0001)  OB_Ie = /* Eastern OB local indices */
(PID.TID 0000.0001)    26 @      -99                            /* J = -2: 23 */
(PID.TID 0000.0001)  OB_Iw = /* Western OB local indices */
(PID.TID 0000.0001)    26 @      -99                            /* J = -2: 23 */
(PID.TID 0000.0001) ======== Tile bi=   1 , bj=  12 ========
(PID.TID 0000.0001)  OB_Jn = /* Northern OB local indices */
(PID.TID 0000.0001)    23 @      -99                            /* I = -2: 20 */
(PID.TID 0000.0001)  OB_Js = /* Southern OB local indices */
(PID.TID 0000.0001)    23 @      -99                            /* I = -2: 20 */
(PID.TID 0000.0001)  OB_Ie = /* Eastern OB local indices */
(PID.TID 0000.0001)    26 @      -99                            /* J = -2: 23 */
(PID.TID 0000.0001)  OB_Iw = /* Western OB local indices */
(PID.TID 0000.0001)    26 @      -99                            /* J = -2: 23 */
(PID.TID 0000.0001) ======== Tile bi=   2 , bj=  12 ========
(PID.TID 0000.0001)  OB_Jn = /* Northern OB local indices */
(PID.TID 0000.0001)    23 @      -99                            /* I = -2: 20 */
(PID.TID 0000.0001)  OB_Js = /* Southern OB local indices */
(PID.TID 0000.0001)    23 @      -99                            /* I = -2: 20 */
(PID.TID 0000.0001)  OB_Ie = /* Eastern OB local indices */
(PID.TID 0000.0001)    26 @      -99                            /* J = -2: 23 */
(PID.TID 0000.0001)  OB_Iw = /* Western OB local indices */
(PID.TID 0000.0001)    26 @      -99                            /* J = -2: 23 */
(PID.TID 0000.0001) ======== Tile bi=   3 , bj=  12 ========
(PID.TID 0000.0001)  OB_Jn = /* Northern OB local indices */
(PID.TID 0000.0001)    23 @      -99                            /* I = -2: 20 */
(PID.TID 0000.0001)  OB_Js = /* Southern OB local indices */
(PID.TID 0000.0001)    23 @      -99                            /* I = -2: 20 */
(PID.TID 0000.0001)  OB_Ie = /* Eastern OB local indices */
(PID.TID 0000.0001)    26 @      -99                            /* J = -2: 23 */
(PID.TID 0000.0001)  OB_Iw = /* Western OB local indices */
(PID.TID 0000.0001)    26 @      -99                            /* J = -2: 23 */
(PID.TID 0000.0001) ======== Tile bi=   4 , bj=  12 ========
(PID.TID 0000.0001)  OB_Jn = /* Northern OB local indices */
(PID.TID 0000.0001)    23 @      -99                            /* I = -2: 20 */
(PID.TID 0000.0001)  OB_Js = /* Southern OB local indices */
(PID.TID 0000.0001)    23 @      -99                            /* I = -2: 20 */
(PID.TID 0000.0001)  OB_Ie = /* Eastern OB local indices */
(PID.TID 0000.0001)    26 @      -99                            /* J = -2: 23 */
(PID.TID 0000.0001)  OB_Iw = /* Western OB local indices */
(PID.TID 0000.0001)    26 @      -99                            /* J = -2: 23 */
(PID.TID 0000.0001) ======== Tile bi=   5 , bj=  12 ========
(PID.TID 0000.0001)  OB_Jn = /* Northern OB local indices */
(PID.TID 0000.0001)    23 @      -99                            /* I = -2: 20 */
(PID.TID 0000.0001)  OB_Js = /* Southern OB local indices */
(PID.TID 0000.0001)    23 @      -99                            /* I = -2: 20 */
(PID.TID 0000.0001)  OB_Ie = /* Eastern OB local indices */
(PID.TID 0000.0001)    26 @      -99                            /* J = -2: 23 */
(PID.TID 0000.0001)  OB_Iw = /* Western OB local indices */
(PID.TID 0000.0001)    26 @      -99                            /* J = -2: 23 */
(PID.TID 0000.0001) ======== Tile bi=   6 , bj=  12 ========
(PID.TID 0000.0001)  OB_Jn = /* Northern OB local indices */
(PID.TID 0000.0001)    23 @      -99                            /* I = -2: 20 */
(PID.TID 0000.0001)  OB_Js = /* Southern OB local indices */
(PID.TID 0000.0001)    23 @      -99                            /* I = -2: 20 */
(PID.TID 0000.0001)  OB_Ie = /* Eastern OB local indices */
(PID.TID 0000.0001)    26 @      -99                            /* J = -2: 23 */
(PID.TID 0000.0001)  OB_Iw = /* Western OB local indices */
(PID.TID 0000.0001)    26 @      -99                            /* J = -2: 23 */
(PID.TID 0000.0001) ======== Tile bi=   7 , bj=  12 ========
(PID.TID 0000.0001)  OB_Jn = /* Northern OB local indices */
(PID.TID 0000.0001)    23 @      -99                            /* I = -2: 20 */
(PID.TID 0000.0001)  OB_Js = /* Southern OB local indices */
(PID.TID 0000.0001)    23 @      -99                            /* I = -2: 20 */
(PID.TID 0000.0001)  OB_Ie = /* Eastern OB local indices */
(PID.TID 0000.0001)    26 @      -99                            /* J = -2: 23 */
(PID.TID 0000.0001)  OB_Iw = /* Western OB local indices */
(PID.TID 0000.0001)    26 @      -99                            /* J = -2: 23 */
(PID.TID 0000.0001) ======== Tile bi=   8 , bj=  12 ========
(PID.TID 0000.0001)  OB_Jn = /* Northern OB local indices */
(PID.TID 0000.0001)    23 @      -99                            /* I = -2: 20 */
(PID.TID 0000.0001)  OB_Js = /* Southern OB local indices */
(PID.TID 0000.0001)    23 @      -99                            /* I = -2: 20 */
(PID.TID 0000.0001)  OB_Ie = /* Eastern OB local indices */
(PID.TID 0000.0001)    26 @      -99                            /* J = -2: 23 */
(PID.TID 0000.0001)  OB_Iw = /* Western OB local indices */
(PID.TID 0000.0001)    26 @      -99                            /* J = -2: 23 */
(PID.TID 0000.0001) ======== Tile bi=   9 , bj=  12 ========
(PID.TID 0000.0001)  OB_Jn = /* Northern OB local indices */
(PID.TID 0000.0001)    23 @      -99                            /* I = -2: 20 */
(PID.TID 0000.0001)  OB_Js = /* Southern OB local indices */
(PID.TID 0000.0001)    23 @      -99                            /* I = -2: 20 */
(PID.TID 0000.0001)  OB_Ie = /* Eastern OB local indices */
(PID.TID 0000.0001)    26 @      -99                            /* J = -2: 23 */
(PID.TID 0000.0001)  OB_Iw = /* Western OB local indices */
(PID.TID 0000.0001)    26 @      -99                            /* J = -2: 23 */
(PID.TID 0000.0001) ======== Tile bi=  10 , bj=  12 ========
(PID.TID 0000.0001)  OB_Jn = /* Northern OB local indices */
(PID.TID 0000.0001)    23 @      -99                            /* I = -2: 20 */
(PID.TID 0000.0001)  OB_Js = /* Southern OB local indices */
(PID.TID 0000.0001)    23 @      -99                            /* I = -2: 20 */
(PID.TID 0000.0001)  OB_Ie = /* Eastern OB local indices */
(PID.TID 0000.0001)    26 @      -99                            /* J = -2: 23 */
(PID.TID 0000.0001)  OB_Iw = /* Western OB local indices */
(PID.TID 0000.0001)    26 @      -99                            /* J = -2: 23 */
(PID.TID 0000.0001) ======== Tile bi=  11 , bj=  12 ========
(PID.TID 0000.0001)  OB_Jn = /* Northern OB local indices */
(PID.TID 0000.0001)    23 @      -99                            /* I = -2: 20 */
(PID.TID 0000.0001)  OB_Js = /* Southern OB local indices */
(PID.TID 0000.0001)    23 @      -99                            /* I = -2: 20 */
(PID.TID 0000.0001)  OB_Ie = /* Eastern OB local indices */
(PID.TID 0000.0001)    26 @      -99                            /* J = -2: 23 */
(PID.TID 0000.0001)  OB_Iw = /* Western OB local indices */
(PID.TID 0000.0001)    26 @      -99                            /* J = -2: 23 */
(PID.TID 0000.0001) ======== Tile bi=  12 , bj=  12 ========
(PID.TID 0000.0001)  OB_Jn = /* Northern OB local indices */
(PID.TID 0000.0001)    23 @      -99                            /* I = -2: 20 */
(PID.TID 0000.0001)  OB_Js = /* Southern OB local indices */
(PID.TID 0000.0001)    23 @      -99                            /* I = -2: 20 */
(PID.TID 0000.0001)  OB_Ie = /* Eastern OB local indices */
(PID.TID 0000.0001)    26 @      -99                            /* J = -2: 23 */
(PID.TID 0000.0001)  OB_Iw = /* Western OB local indices */
(PID.TID 0000.0001)    26 @      -99                            /* J = -2: 23 */
(PID.TID 0000.0001) ======== Tile bi=  13 , bj=  12 ========
(PID.TID 0000.0001)  OB_Jn = /* Northern OB local indices */
(PID.TID 0000.0001)    23 @      -99                            /* I = -2: 20 */
(PID.TID 0000.0001)  OB_Js = /* Southern OB local indices */
(PID.TID 0000.0001)    23 @      -99                            /* I = -2: 20 */
(PID.TID 0000.0001)  OB_Ie = /* Eastern OB local indices */
(PID.TID 0000.0001)    26 @      -99                            /* J = -2: 23 */
(PID.TID 0000.0001)  OB_Iw = /* Western OB local indices */
(PID.TID 0000.0001)    26 @      -99                            /* J = -2: 23 */
(PID.TID 0000.0001) ======== Tile bi=  14 , bj=  12 ========
(PID.TID 0000.0001)  OB_Jn = /* Northern OB local indices */
(PID.TID 0000.0001)    23 @      -99                            /* I = -2: 20 */
(PID.TID 0000.0001)  OB_Js = /* Southern OB local indices */
(PID.TID 0000.0001)    23 @      -99                            /* I = -2: 20 */
(PID.TID 0000.0001)  OB_Ie = /* Eastern OB local indices */
(PID.TID 0000.0001)    26 @      -99                            /* J = -2: 23 */
(PID.TID 0000.0001)  OB_Iw = /* Western OB local indices */
(PID.TID 0000.0001)    26 @      -99                            /* J = -2: 23 */
(PID.TID 0000.0001) ======== Tile bi=  15 , bj=  12 ========
(PID.TID 0000.0001)  OB_Jn = /* Northern OB local indices */
(PID.TID 0000.0001)    23 @      -99                            /* I = -2: 20 */
(PID.TID 0000.0001)  OB_Js = /* Southern OB local indices */
(PID.TID 0000.0001)    23 @      -99                            /* I = -2: 20 */
(PID.TID 0000.0001)  OB_Ie = /* Eastern OB local indices */
(PID.TID 0000.0001)    26 @      -99                            /* J = -2: 23 */
(PID.TID 0000.0001)  OB_Iw = /* Western OB local indices */
(PID.TID 0000.0001)    26 @      -99                            /* J = -2: 23 */
(PID.TID 0000.0001) ======== Tile bi=  16 , bj=  12 ========
(PID.TID 0000.0001)  OB_Jn = /* Northern OB local indices */
(PID.TID 0000.0001)    23 @      -99                            /* I = -2: 20 */
(PID.TID 0000.0001)  OB_Js = /* Southern OB local indices */
(PID.TID 0000.0001)    23 @      -99                            /* I = -2: 20 */
(PID.TID 0000.0001)  OB_Ie = /* Eastern OB local indices */
(PID.TID 0000.0001)    26 @      -99                            /* J = -2: 23 */
(PID.TID 0000.0001)  OB_Iw = /* Western OB local indices */
(PID.TID 0000.0001)    26 @      -99                            /* J = -2: 23 */
(PID.TID 0000.0001) ======== Tile bi=   1 , bj=  13 ========
(PID.TID 0000.0001)  OB_Jn = /* Northern OB local indices */
(PID.TID 0000.0001)    23 @      -99                            /* I = -2: 20 */
(PID.TID 0000.0001)  OB_Js = /* Southern OB local indices */
(PID.TID 0000.0001)    23 @      -99                            /* I = -2: 20 */
(PID.TID 0000.0001)  OB_Ie = /* Eastern OB local indices */
(PID.TID 0000.0001)    26 @      -99                            /* J = -2: 23 */
(PID.TID 0000.0001)  OB_Iw = /* Western OB local indices */
(PID.TID 0000.0001)    26 @      -99                            /* J = -2: 23 */
(PID.TID 0000.0001) ======== Tile bi=   2 , bj=  13 ========
(PID.TID 0000.0001)  OB_Jn = /* Northern OB local indices */
(PID.TID 0000.0001)    23 @      -99                            /* I = -2: 20 */
(PID.TID 0000.0001)  OB_Js = /* Southern OB local indices */
(PID.TID 0000.0001)    23 @      -99                            /* I = -2: 20 */
(PID.TID 0000.0001)  OB_Ie = /* Eastern OB local indices */
(PID.TID 0000.0001)    26 @      -99                            /* J = -2: 23 */
(PID.TID 0000.0001)  OB_Iw = /* Western OB local indices */
(PID.TID 0000.0001)    26 @      -99                            /* J = -2: 23 */
(PID.TID 0000.0001) ======== Tile bi=   3 , bj=  13 ========
(PID.TID 0000.0001)  OB_Jn = /* Northern OB local indices */
(PID.TID 0000.0001)    23 @      -99                            /* I = -2: 20 */
(PID.TID 0000.0001)  OB_Js = /* Southern OB local indices */
(PID.TID 0000.0001)    23 @      -99                            /* I = -2: 20 */
(PID.TID 0000.0001)  OB_Ie = /* Eastern OB local indices */
(PID.TID 0000.0001)    26 @      -99                            /* J = -2: 23 */
(PID.TID 0000.0001)  OB_Iw = /* Western OB local indices */
(PID.TID 0000.0001)    26 @      -99                            /* J = -2: 23 */
(PID.TID 0000.0001) ======== Tile bi=   4 , bj=  13 ========
(PID.TID 0000.0001)  OB_Jn = /* Northern OB local indices */
(PID.TID 0000.0001)    23 @      -99                            /* I = -2: 20 */
(PID.TID 0000.0001)  OB_Js = /* Southern OB local indices */
(PID.TID 0000.0001)    23 @      -99                            /* I = -2: 20 */
(PID.TID 0000.0001)  OB_Ie = /* Eastern OB local indices */
(PID.TID 0000.0001)    26 @      -99                            /* J = -2: 23 */
(PID.TID 0000.0001)  OB_Iw = /* Western OB local indices */
(PID.TID 0000.0001)    26 @      -99                            /* J = -2: 23 */
(PID.TID 0000.0001) ======== Tile bi=   5 , bj=  13 ========
(PID.TID 0000.0001)  OB_Jn = /* Northern OB local indices */
(PID.TID 0000.0001)    23 @      -99                            /* I = -2: 20 */
(PID.TID 0000.0001)  OB_Js = /* Southern OB local indices */
(PID.TID 0000.0001)    23 @      -99                            /* I = -2: 20 */
(PID.TID 0000.0001)  OB_Ie = /* Eastern OB local indices */
(PID.TID 0000.0001)    26 @      -99                            /* J = -2: 23 */
(PID.TID 0000.0001)  OB_Iw = /* Western OB local indices */
(PID.TID 0000.0001)    26 @      -99                            /* J = -2: 23 */
(PID.TID 0000.0001) ======== Tile bi=   6 , bj=  13 ========
(PID.TID 0000.0001)  OB_Jn = /* Northern OB local indices */
(PID.TID 0000.0001)    23 @      -99                            /* I = -2: 20 */
(PID.TID 0000.0001)  OB_Js = /* Southern OB local indices */
(PID.TID 0000.0001)    23 @      -99                            /* I = -2: 20 */
(PID.TID 0000.0001)  OB_Ie = /* Eastern OB local indices */
(PID.TID 0000.0001)    26 @      -99                            /* J = -2: 23 */
(PID.TID 0000.0001)  OB_Iw = /* Western OB local indices */
(PID.TID 0000.0001)    26 @      -99                            /* J = -2: 23 */
(PID.TID 0000.0001) ======== Tile bi=   7 , bj=  13 ========
(PID.TID 0000.0001)  OB_Jn = /* Northern OB local indices */
(PID.TID 0000.0001)    23 @      -99                            /* I = -2: 20 */
(PID.TID 0000.0001)  OB_Js = /* Southern OB local indices */
(PID.TID 0000.0001)    23 @      -99                            /* I = -2: 20 */
(PID.TID 0000.0001)  OB_Ie = /* Eastern OB local indices */
(PID.TID 0000.0001)    26 @      -99                            /* J = -2: 23 */
(PID.TID 0000.0001)  OB_Iw = /* Western OB local indices */
(PID.TID 0000.0001)    26 @      -99                            /* J = -2: 23 */
(PID.TID 0000.0001) ======== Tile bi=   8 , bj=  13 ========
(PID.TID 0000.0001)  OB_Jn = /* Northern OB local indices */
(PID.TID 0000.0001)    23 @      -99                            /* I = -2: 20 */
(PID.TID 0000.0001)  OB_Js = /* Southern OB local indices */
(PID.TID 0000.0001)    23 @      -99                            /* I = -2: 20 */
(PID.TID 0000.0001)  OB_Ie = /* Eastern OB local indices */
(PID.TID 0000.0001)    26 @      -99                            /* J = -2: 23 */
(PID.TID 0000.0001)  OB_Iw = /* Western OB local indices */
(PID.TID 0000.0001)    26 @      -99                            /* J = -2: 23 */
(PID.TID 0000.0001) ======== Tile bi=   9 , bj=  13 ========
(PID.TID 0000.0001)  OB_Jn = /* Northern OB local indices */
(PID.TID 0000.0001)    23 @      -99                            /* I = -2: 20 */
(PID.TID 0000.0001)  OB_Js = /* Southern OB local indices */
(PID.TID 0000.0001)    23 @      -99                            /* I = -2: 20 */
(PID.TID 0000.0001)  OB_Ie = /* Eastern OB local indices */
(PID.TID 0000.0001)    26 @      -99                            /* J = -2: 23 */
(PID.TID 0000.0001)  OB_Iw = /* Western OB local indices */
(PID.TID 0000.0001)    26 @      -99                            /* J = -2: 23 */
(PID.TID 0000.0001) ======== Tile bi=  10 , bj=  13 ========
(PID.TID 0000.0001)  OB_Jn = /* Northern OB local indices */
(PID.TID 0000.0001)    23 @      -99                            /* I = -2: 20 */
(PID.TID 0000.0001)  OB_Js = /* Southern OB local indices */
(PID.TID 0000.0001)    23 @      -99                            /* I = -2: 20 */
(PID.TID 0000.0001)  OB_Ie = /* Eastern OB local indices */
(PID.TID 0000.0001)    26 @      -99                            /* J = -2: 23 */
(PID.TID 0000.0001)  OB_Iw = /* Western OB local indices */
(PID.TID 0000.0001)    26 @      -99                            /* J = -2: 23 */
(PID.TID 0000.0001) ======== Tile bi=  11 , bj=  13 ========
(PID.TID 0000.0001)  OB_Jn = /* Northern OB local indices */
(PID.TID 0000.0001)    23 @      -99                            /* I = -2: 20 */
(PID.TID 0000.0001)  OB_Js = /* Southern OB local indices */
(PID.TID 0000.0001)    23 @      -99                            /* I = -2: 20 */
(PID.TID 0000.0001)  OB_Ie = /* Eastern OB local indices */
(PID.TID 0000.0001)    26 @      -99                            /* J = -2: 23 */
(PID.TID 0000.0001)  OB_Iw = /* Western OB local indices */
(PID.TID 0000.0001)    26 @      -99                            /* J = -2: 23 */
(PID.TID 0000.0001) ======== Tile bi=  12 , bj=  13 ========
(PID.TID 0000.0001)  OB_Jn = /* Northern OB local indices */
(PID.TID 0000.0001)    23 @      -99                            /* I = -2: 20 */
(PID.TID 0000.0001)  OB_Js = /* Southern OB local indices */
(PID.TID 0000.0001)    23 @      -99                            /* I = -2: 20 */
(PID.TID 0000.0001)  OB_Ie = /* Eastern OB local indices */
(PID.TID 0000.0001)    26 @      -99                            /* J = -2: 23 */
(PID.TID 0000.0001)  OB_Iw = /* Western OB local indices */
(PID.TID 0000.0001)    26 @      -99                            /* J = -2: 23 */
(PID.TID 0000.0001) ======== Tile bi=  13 , bj=  13 ========
(PID.TID 0000.0001)  OB_Jn = /* Northern OB local indices */
(PID.TID 0000.0001)    23 @      -99                            /* I = -2: 20 */
(PID.TID 0000.0001)  OB_Js = /* Southern OB local indices */
(PID.TID 0000.0001)    23 @      -99                            /* I = -2: 20 */
(PID.TID 0000.0001)  OB_Ie = /* Eastern OB local indices */
(PID.TID 0000.0001)    26 @      -99                            /* J = -2: 23 */
(PID.TID 0000.0001)  OB_Iw = /* Western OB local indices */
(PID.TID 0000.0001)    26 @      -99                            /* J = -2: 23 */
(PID.TID 0000.0001) ======== Tile bi=  14 , bj=  13 ========
(PID.TID 0000.0001)  OB_Jn = /* Northern OB local indices */
(PID.TID 0000.0001)    23 @      -99                            /* I = -2: 20 */
(PID.TID 0000.0001)  OB_Js = /* Southern OB local indices */
(PID.TID 0000.0001)    23 @      -99                            /* I = -2: 20 */
(PID.TID 0000.0001)  OB_Ie = /* Eastern OB local indices */
(PID.TID 0000.0001)    26 @      -99                            /* J = -2: 23 */
(PID.TID 0000.0001)  OB_Iw = /* Western OB local indices */
(PID.TID 0000.0001)    26 @      -99                            /* J = -2: 23 */
(PID.TID 0000.0001) ======== Tile bi=  15 , bj=  13 ========
(PID.TID 0000.0001)  OB_Jn = /* Northern OB local indices */
(PID.TID 0000.0001)    23 @      -99                            /* I = -2: 20 */
(PID.TID 0000.0001)  OB_Js = /* Southern OB local indices */
(PID.TID 0000.0001)    23 @      -99                            /* I = -2: 20 */
(PID.TID 0000.0001)  OB_Ie = /* Eastern OB local indices */
(PID.TID 0000.0001)    26 @      -99                            /* J = -2: 23 */
(PID.TID 0000.0001)  OB_Iw = /* Western OB local indices */
(PID.TID 0000.0001)    26 @      -99                            /* J = -2: 23 */
(PID.TID 0000.0001) ======== Tile bi=  16 , bj=  13 ========
(PID.TID 0000.0001)  OB_Jn = /* Northern OB local indices */
(PID.TID 0000.0001)    23 @      -99                            /* I = -2: 20 */
(PID.TID 0000.0001)  OB_Js = /* Southern OB local indices */
(PID.TID 0000.0001)    23 @      -99                            /* I = -2: 20 */
(PID.TID 0000.0001)  OB_Ie = /* Eastern OB local indices */
(PID.TID 0000.0001)    26 @      -99                            /* J = -2: 23 */
(PID.TID 0000.0001)  OB_Iw = /* Western OB local indices */
(PID.TID 0000.0001)    26 @      -99                            /* J = -2: 23 */
(PID.TID 0000.0001) ======== Tile bi=   1 , bj=  14 ========
(PID.TID 0000.0001)  OB_Jn = /* Northern OB local indices */
(PID.TID 0000.0001)    23 @      -99                            /* I = -2: 20 */
(PID.TID 0000.0001)  OB_Js = /* Southern OB local indices */
(PID.TID 0000.0001)    23 @      -99                            /* I = -2: 20 */
(PID.TID 0000.0001)  OB_Ie = /* Eastern OB local indices */
(PID.TID 0000.0001)    26 @      -99                            /* J = -2: 23 */
(PID.TID 0000.0001)  OB_Iw = /* Western OB local indices */
(PID.TID 0000.0001)    26 @      -99                            /* J = -2: 23 */
(PID.TID 0000.0001) ======== Tile bi=   2 , bj=  14 ========
(PID.TID 0000.0001)  OB_Jn = /* Northern OB local indices */
(PID.TID 0000.0001)    23 @      -99                            /* I = -2: 20 */
(PID.TID 0000.0001)  OB_Js = /* Southern OB local indices */
(PID.TID 0000.0001)    23 @      -99                            /* I = -2: 20 */
(PID.TID 0000.0001)  OB_Ie = /* Eastern OB local indices */
(PID.TID 0000.0001)    26 @      -99                            /* J = -2: 23 */
(PID.TID 0000.0001)  OB_Iw = /* Western OB local indices */
(PID.TID 0000.0001)    26 @      -99                            /* J = -2: 23 */
(PID.TID 0000.0001) ======== Tile bi=   3 , bj=  14 ========
(PID.TID 0000.0001)  OB_Jn = /* Northern OB local indices */
(PID.TID 0000.0001)    23 @      -99                            /* I = -2: 20 */
(PID.TID 0000.0001)  OB_Js = /* Southern OB local indices */
(PID.TID 0000.0001)    23 @      -99                            /* I = -2: 20 */
(PID.TID 0000.0001)  OB_Ie = /* Eastern OB local indices */
(PID.TID 0000.0001)    26 @      -99                            /* J = -2: 23 */
(PID.TID 0000.0001)  OB_Iw = /* Western OB local indices */
(PID.TID 0000.0001)    26 @      -99                            /* J = -2: 23 */
(PID.TID 0000.0001) ======== Tile bi=   4 , bj=  14 ========
(PID.TID 0000.0001)  OB_Jn = /* Northern OB local indices */
(PID.TID 0000.0001)    23 @      -99                            /* I = -2: 20 */
(PID.TID 0000.0001)  OB_Js = /* Southern OB local indices */
(PID.TID 0000.0001)    23 @      -99                            /* I = -2: 20 */
(PID.TID 0000.0001)  OB_Ie = /* Eastern OB local indices */
(PID.TID 0000.0001)    26 @      -99                            /* J = -2: 23 */
(PID.TID 0000.0001)  OB_Iw = /* Western OB local indices */
(PID.TID 0000.0001)    26 @      -99                            /* J = -2: 23 */
(PID.TID 0000.0001) ======== Tile bi=   5 , bj=  14 ========
(PID.TID 0000.0001)  OB_Jn = /* Northern OB local indices */
(PID.TID 0000.0001)    23 @      -99                            /* I = -2: 20 */
(PID.TID 0000.0001)  OB_Js = /* Southern OB local indices */
(PID.TID 0000.0001)    23 @      -99                            /* I = -2: 20 */
(PID.TID 0000.0001)  OB_Ie = /* Eastern OB local indices */
(PID.TID 0000.0001)    26 @      -99                            /* J = -2: 23 */
(PID.TID 0000.0001)  OB_Iw = /* Western OB local indices */
(PID.TID 0000.0001)    26 @      -99                            /* J = -2: 23 */
(PID.TID 0000.0001) ======== Tile bi=   6 , bj=  14 ========
(PID.TID 0000.0001)  OB_Jn = /* Northern OB local indices */
(PID.TID 0000.0001)    23 @      -99                            /* I = -2: 20 */
(PID.TID 0000.0001)  OB_Js = /* Southern OB local indices */
(PID.TID 0000.0001)    23 @      -99                            /* I = -2: 20 */
(PID.TID 0000.0001)  OB_Ie = /* Eastern OB local indices */
(PID.TID 0000.0001)    26 @      -99                            /* J = -2: 23 */
(PID.TID 0000.0001)  OB_Iw = /* Western OB local indices */
(PID.TID 0000.0001)    26 @      -99                            /* J = -2: 23 */
(PID.TID 0000.0001) ======== Tile bi=   7 , bj=  14 ========
(PID.TID 0000.0001)  OB_Jn = /* Northern OB local indices */
(PID.TID 0000.0001)    23 @      -99                            /* I = -2: 20 */
(PID.TID 0000.0001)  OB_Js = /* Southern OB local indices */
(PID.TID 0000.0001)    23 @      -99                            /* I = -2: 20 */
(PID.TID 0000.0001)  OB_Ie = /* Eastern OB local indices */
(PID.TID 0000.0001)    26 @      -99                            /* J = -2: 23 */
(PID.TID 0000.0001)  OB_Iw = /* Western OB local indices */
(PID.TID 0000.0001)    26 @      -99                            /* J = -2: 23 */
(PID.TID 0000.0001) ======== Tile bi=   8 , bj=  14 ========
(PID.TID 0000.0001)  OB_Jn = /* Northern OB local indices */
(PID.TID 0000.0001)    23 @      -99                            /* I = -2: 20 */
(PID.TID 0000.0001)  OB_Js = /* Southern OB local indices */
(PID.TID 0000.0001)    23 @      -99                            /* I = -2: 20 */
(PID.TID 0000.0001)  OB_Ie = /* Eastern OB local indices */
(PID.TID 0000.0001)    26 @      -99                            /* J = -2: 23 */
(PID.TID 0000.0001)  OB_Iw = /* Western OB local indices */
(PID.TID 0000.0001)    26 @      -99                            /* J = -2: 23 */
(PID.TID 0000.0001) ======== Tile bi=   9 , bj=  14 ========
(PID.TID 0000.0001)  OB_Jn = /* Northern OB local indices */
(PID.TID 0000.0001)    23 @      -99                            /* I = -2: 20 */
(PID.TID 0000.0001)  OB_Js = /* Southern OB local indices */
(PID.TID 0000.0001)    23 @      -99                            /* I = -2: 20 */
(PID.TID 0000.0001)  OB_Ie = /* Eastern OB local indices */
(PID.TID 0000.0001)    26 @      -99                            /* J = -2: 23 */
(PID.TID 0000.0001)  OB_Iw = /* Western OB local indices */
(PID.TID 0000.0001)    26 @      -99                            /* J = -2: 23 */
(PID.TID 0000.0001) ======== Tile bi=  10 , bj=  14 ========
(PID.TID 0000.0001)  OB_Jn = /* Northern OB local indices */
(PID.TID 0000.0001)    23 @      -99                            /* I = -2: 20 */
(PID.TID 0000.0001)  OB_Js = /* Southern OB local indices */
(PID.TID 0000.0001)    23 @      -99                            /* I = -2: 20 */
(PID.TID 0000.0001)  OB_Ie = /* Eastern OB local indices */
(PID.TID 0000.0001)    26 @      -99                            /* J = -2: 23 */
(PID.TID 0000.0001)  OB_Iw = /* Western OB local indices */
(PID.TID 0000.0001)    26 @      -99                            /* J = -2: 23 */
(PID.TID 0000.0001) ======== Tile bi=  11 , bj=  14 ========
(PID.TID 0000.0001)  OB_Jn = /* Northern OB local indices */
(PID.TID 0000.0001)    23 @      -99                            /* I = -2: 20 */
(PID.TID 0000.0001)  OB_Js = /* Southern OB local indices */
(PID.TID 0000.0001)    23 @      -99                            /* I = -2: 20 */
(PID.TID 0000.0001)  OB_Ie = /* Eastern OB local indices */
(PID.TID 0000.0001)    26 @      -99                            /* J = -2: 23 */
(PID.TID 0000.0001)  OB_Iw = /* Western OB local indices */
(PID.TID 0000.0001)    26 @      -99                            /* J = -2: 23 */
(PID.TID 0000.0001) ======== Tile bi=  12 , bj=  14 ========
(PID.TID 0000.0001)  OB_Jn = /* Northern OB local indices */
(PID.TID 0000.0001)    23 @      -99                            /* I = -2: 20 */
(PID.TID 0000.0001)  OB_Js = /* Southern OB local indices */
(PID.TID 0000.0001)    23 @      -99                            /* I = -2: 20 */
(PID.TID 0000.0001)  OB_Ie = /* Eastern OB local indices */
(PID.TID 0000.0001)    26 @      -99                            /* J = -2: 23 */
(PID.TID 0000.0001)  OB_Iw = /* Western OB local indices */
(PID.TID 0000.0001)    26 @      -99                            /* J = -2: 23 */
(PID.TID 0000.0001) ======== Tile bi=  13 , bj=  14 ========
(PID.TID 0000.0001)  OB_Jn = /* Northern OB local indices */
(PID.TID 0000.0001)    23 @      -99                            /* I = -2: 20 */
(PID.TID 0000.0001)  OB_Js = /* Southern OB local indices */
(PID.TID 0000.0001)    23 @      -99                            /* I = -2: 20 */
(PID.TID 0000.0001)  OB_Ie = /* Eastern OB local indices */
(PID.TID 0000.0001)    26 @      -99                            /* J = -2: 23 */
(PID.TID 0000.0001)  OB_Iw = /* Western OB local indices */
(PID.TID 0000.0001)    26 @      -99                            /* J = -2: 23 */
(PID.TID 0000.0001) ======== Tile bi=  14 , bj=  14 ========
(PID.TID 0000.0001)  OB_Jn = /* Northern OB local indices */
(PID.TID 0000.0001)    23 @      -99                            /* I = -2: 20 */
(PID.TID 0000.0001)  OB_Js = /* Southern OB local indices */
(PID.TID 0000.0001)    23 @      -99                            /* I = -2: 20 */
(PID.TID 0000.0001)  OB_Ie = /* Eastern OB local indices */
(PID.TID 0000.0001)    26 @      -99                            /* J = -2: 23 */
(PID.TID 0000.0001)  OB_Iw = /* Western OB local indices */
(PID.TID 0000.0001)    26 @      -99                            /* J = -2: 23 */
(PID.TID 0000.0001) ======== Tile bi=  15 , bj=  14 ========
(PID.TID 0000.0001)  OB_Jn = /* Northern OB local indices */
(PID.TID 0000.0001)    23 @      -99                            /* I = -2: 20 */
(PID.TID 0000.0001)  OB_Js = /* Southern OB local indices */
(PID.TID 0000.0001)    23 @      -99                            /* I = -2: 20 */
(PID.TID 0000.0001)  OB_Ie = /* Eastern OB local indices */
(PID.TID 0000.0001)    26 @      -99                            /* J = -2: 23 */
(PID.TID 0000.0001)  OB_Iw = /* Western OB local indices */
(PID.TID 0000.0001)    26 @      -99                            /* J = -2: 23 */
(PID.TID 0000.0001) ======== Tile bi=  16 , bj=  14 ========
(PID.TID 0000.0001)  OB_Jn = /* Northern OB local indices */
(PID.TID 0000.0001)    23 @      -99                            /* I = -2: 20 */
(PID.TID 0000.0001)  OB_Js = /* Southern OB local indices */
(PID.TID 0000.0001)    23 @      -99                            /* I = -2: 20 */
(PID.TID 0000.0001)  OB_Ie = /* Eastern OB local indices */
(PID.TID 0000.0001)    26 @      -99                            /* J = -2: 23 */
(PID.TID 0000.0001)  OB_Iw = /* Western OB local indices */
(PID.TID 0000.0001)    26 @      -99                            /* J = -2: 23 */
(PID.TID 0000.0001) ======== Tile bi=   1 , bj=  15 ========
(PID.TID 0000.0001)  OB_Jn = /* Northern OB local indices */
(PID.TID 0000.0001)    23 @      -99                            /* I = -2: 20 */
(PID.TID 0000.0001)  OB_Js = /* Southern OB local indices */
(PID.TID 0000.0001)    23 @      -99                            /* I = -2: 20 */
(PID.TID 0000.0001)  OB_Ie = /* Eastern OB local indices */
(PID.TID 0000.0001)    26 @      -99                            /* J = -2: 23 */
(PID.TID 0000.0001)  OB_Iw = /* Western OB local indices */
(PID.TID 0000.0001)    26 @      -99                            /* J = -2: 23 */
(PID.TID 0000.0001) ======== Tile bi=   2 , bj=  15 ========
(PID.TID 0000.0001)  OB_Jn = /* Northern OB local indices */
(PID.TID 0000.0001)    23 @      -99                            /* I = -2: 20 */
(PID.TID 0000.0001)  OB_Js = /* Southern OB local indices */
(PID.TID 0000.0001)    23 @      -99                            /* I = -2: 20 */
(PID.TID 0000.0001)  OB_Ie = /* Eastern OB local indices */
(PID.TID 0000.0001)    26 @      -99                            /* J = -2: 23 */
(PID.TID 0000.0001)  OB_Iw = /* Western OB local indices */
(PID.TID 0000.0001)    26 @      -99                            /* J = -2: 23 */
(PID.TID 0000.0001) ======== Tile bi=   3 , bj=  15 ========
(PID.TID 0000.0001)  OB_Jn = /* Northern OB local indices */
(PID.TID 0000.0001)    23 @      -99                            /* I = -2: 20 */
(PID.TID 0000.0001)  OB_Js = /* Southern OB local indices */
(PID.TID 0000.0001)    23 @      -99                            /* I = -2: 20 */
(PID.TID 0000.0001)  OB_Ie = /* Eastern OB local indices */
(PID.TID 0000.0001)    26 @      -99                            /* J = -2: 23 */
(PID.TID 0000.0001)  OB_Iw = /* Western OB local indices */
(PID.TID 0000.0001)    26 @      -99                            /* J = -2: 23 */
(PID.TID 0000.0001) ======== Tile bi=   4 , bj=  15 ========
(PID.TID 0000.0001)  OB_Jn = /* Northern OB local indices */
(PID.TID 0000.0001)    23 @      -99                            /* I = -2: 20 */
(PID.TID 0000.0001)  OB_Js = /* Southern OB local indices */
(PID.TID 0000.0001)    23 @      -99                            /* I = -2: 20 */
(PID.TID 0000.0001)  OB_Ie = /* Eastern OB local indices */
(PID.TID 0000.0001)    26 @      -99                            /* J = -2: 23 */
(PID.TID 0000.0001)  OB_Iw = /* Western OB local indices */
(PID.TID 0000.0001)    26 @      -99                            /* J = -2: 23 */
(PID.TID 0000.0001) ======== Tile bi=   5 , bj=  15 ========
(PID.TID 0000.0001)  OB_Jn = /* Northern OB local indices */
(PID.TID 0000.0001)    23 @      -99                            /* I = -2: 20 */
(PID.TID 0000.0001)  OB_Js = /* Southern OB local indices */
(PID.TID 0000.0001)    23 @      -99                            /* I = -2: 20 */
(PID.TID 0000.0001)  OB_Ie = /* Eastern OB local indices */
(PID.TID 0000.0001)    26 @      -99                            /* J = -2: 23 */
(PID.TID 0000.0001)  OB_Iw = /* Western OB local indices */
(PID.TID 0000.0001)    26 @      -99                            /* J = -2: 23 */
(PID.TID 0000.0001) ======== Tile bi=   6 , bj=  15 ========
(PID.TID 0000.0001)  OB_Jn = /* Northern OB local indices */
(PID.TID 0000.0001)    23 @      -99                            /* I = -2: 20 */
(PID.TID 0000.0001)  OB_Js = /* Southern OB local indices */
(PID.TID 0000.0001)    23 @      -99                            /* I = -2: 20 */
(PID.TID 0000.0001)  OB_Ie = /* Eastern OB local indices */
(PID.TID 0000.0001)    26 @      -99                            /* J = -2: 23 */
(PID.TID 0000.0001)  OB_Iw = /* Western OB local indices */
(PID.TID 0000.0001)    26 @      -99                            /* J = -2: 23 */
(PID.TID 0000.0001) ======== Tile bi=   7 , bj=  15 ========
(PID.TID 0000.0001)  OB_Jn = /* Northern OB local indices */
(PID.TID 0000.0001)    23 @      -99                            /* I = -2: 20 */
(PID.TID 0000.0001)  OB_Js = /* Southern OB local indices */
(PID.TID 0000.0001)    23 @      -99                            /* I = -2: 20 */
(PID.TID 0000.0001)  OB_Ie = /* Eastern OB local indices */
(PID.TID 0000.0001)    26 @      -99                            /* J = -2: 23 */
(PID.TID 0000.0001)  OB_Iw = /* Western OB local indices */
(PID.TID 0000.0001)    26 @      -99                            /* J = -2: 23 */
(PID.TID 0000.0001) ======== Tile bi=   8 , bj=  15 ========
(PID.TID 0000.0001)  OB_Jn = /* Northern OB local indices */
(PID.TID 0000.0001)    23 @      -99                            /* I = -2: 20 */
(PID.TID 0000.0001)  OB_Js = /* Southern OB local indices */
(PID.TID 0000.0001)    23 @      -99                            /* I = -2: 20 */
(PID.TID 0000.0001)  OB_Ie = /* Eastern OB local indices */
(PID.TID 0000.0001)    26 @      -99                            /* J = -2: 23 */
(PID.TID 0000.0001)  OB_Iw = /* Western OB local indices */
(PID.TID 0000.0001)    26 @      -99                            /* J = -2: 23 */
(PID.TID 0000.0001) ======== Tile bi=   9 , bj=  15 ========
(PID.TID 0000.0001)  OB_Jn = /* Northern OB local indices */
(PID.TID 0000.0001)    23 @      -99                            /* I = -2: 20 */
(PID.TID 0000.0001)  OB_Js = /* Southern OB local indices */
(PID.TID 0000.0001)    23 @      -99                            /* I = -2: 20 */
(PID.TID 0000.0001)  OB_Ie = /* Eastern OB local indices */
(PID.TID 0000.0001)    26 @      -99                            /* J = -2: 23 */
(PID.TID 0000.0001)  OB_Iw = /* Western OB local indices */
(PID.TID 0000.0001)    26 @      -99                            /* J = -2: 23 */
(PID.TID 0000.0001) ======== Tile bi=  10 , bj=  15 ========
(PID.TID 0000.0001)  OB_Jn = /* Northern OB local indices */
(PID.TID 0000.0001)    23 @      -99                            /* I = -2: 20 */
(PID.TID 0000.0001)  OB_Js = /* Southern OB local indices */
(PID.TID 0000.0001)    23 @      -99                            /* I = -2: 20 */
(PID.TID 0000.0001)  OB_Ie = /* Eastern OB local indices */
(PID.TID 0000.0001)    26 @      -99                            /* J = -2: 23 */
(PID.TID 0000.0001)  OB_Iw = /* Western OB local indices */
(PID.TID 0000.0001)    26 @      -99                            /* J = -2: 23 */
(PID.TID 0000.0001) ======== Tile bi=  11 , bj=  15 ========
(PID.TID 0000.0001)  OB_Jn = /* Northern OB local indices */
(PID.TID 0000.0001)    23 @      -99                            /* I = -2: 20 */
(PID.TID 0000.0001)  OB_Js = /* Southern OB local indices */
(PID.TID 0000.0001)    23 @      -99                            /* I = -2: 20 */
(PID.TID 0000.0001)  OB_Ie = /* Eastern OB local indices */
(PID.TID 0000.0001)    26 @      -99                            /* J = -2: 23 */
(PID.TID 0000.0001)  OB_Iw = /* Western OB local indices */
(PID.TID 0000.0001)    26 @      -99                            /* J = -2: 23 */
(PID.TID 0000.0001) ======== Tile bi=  12 , bj=  15 ========
(PID.TID 0000.0001)  OB_Jn = /* Northern OB local indices */
(PID.TID 0000.0001)    23 @      -99                            /* I = -2: 20 */
(PID.TID 0000.0001)  OB_Js = /* Southern OB local indices */
(PID.TID 0000.0001)    23 @      -99                            /* I = -2: 20 */
(PID.TID 0000.0001)  OB_Ie = /* Eastern OB local indices */
(PID.TID 0000.0001)    26 @      -99                            /* J = -2: 23 */
(PID.TID 0000.0001)  OB_Iw = /* Western OB local indices */
(PID.TID 0000.0001)    26 @      -99                            /* J = -2: 23 */
(PID.TID 0000.0001) ======== Tile bi=  13 , bj=  15 ========
(PID.TID 0000.0001)  OB_Jn = /* Northern OB local indices */
(PID.TID 0000.0001)    23 @      -99                            /* I = -2: 20 */
(PID.TID 0000.0001)  OB_Js = /* Southern OB local indices */
(PID.TID 0000.0001)    23 @      -99                            /* I = -2: 20 */
(PID.TID 0000.0001)  OB_Ie = /* Eastern OB local indices */
(PID.TID 0000.0001)    26 @      -99                            /* J = -2: 23 */
(PID.TID 0000.0001)  OB_Iw = /* Western OB local indices */
(PID.TID 0000.0001)    26 @      -99                            /* J = -2: 23 */
(PID.TID 0000.0001) ======== Tile bi=  14 , bj=  15 ========
(PID.TID 0000.0001)  OB_Jn = /* Northern OB local indices */
(PID.TID 0000.0001)    23 @      -99                            /* I = -2: 20 */
(PID.TID 0000.0001)  OB_Js = /* Southern OB local indices */
(PID.TID 0000.0001)    23 @      -99                            /* I = -2: 20 */
(PID.TID 0000.0001)  OB_Ie = /* Eastern OB local indices */
(PID.TID 0000.0001)    26 @      -99                            /* J = -2: 23 */
(PID.TID 0000.0001)  OB_Iw = /* Western OB local indices */
(PID.TID 0000.0001)    26 @      -99                            /* J = -2: 23 */
(PID.TID 0000.0001) ======== Tile bi=  15 , bj=  15 ========
(PID.TID 0000.0001)  OB_Jn = /* Northern OB local indices */
(PID.TID 0000.0001)    23 @      -99                            /* I = -2: 20 */
(PID.TID 0000.0001)  OB_Js = /* Southern OB local indices */
(PID.TID 0000.0001)    23 @      -99                            /* I = -2: 20 */
(PID.TID 0000.0001)  OB_Ie = /* Eastern OB local indices */
(PID.TID 0000.0001)    26 @      -99                            /* J = -2: 23 */
(PID.TID 0000.0001)  OB_Iw = /* Western OB local indices */
(PID.TID 0000.0001)    26 @      -99                            /* J = -2: 23 */
(PID.TID 0000.0001) ======== Tile bi=  16 , bj=  15 ========
(PID.TID 0000.0001)  OB_Jn = /* Northern OB local indices */
(PID.TID 0000.0001)    23 @      -99                            /* I = -2: 20 */
(PID.TID 0000.0001)  OB_Js = /* Southern OB local indices */
(PID.TID 0000.0001)    23 @      -99                            /* I = -2: 20 */
(PID.TID 0000.0001)  OB_Ie = /* Eastern OB local indices */
(PID.TID 0000.0001)    26 @      -99                            /* J = -2: 23 */
(PID.TID 0000.0001)  OB_Iw = /* Western OB local indices */
(PID.TID 0000.0001)    26 @      -99                            /* J = -2: 23 */
(PID.TID 0000.0001) ======== Tile bi=   1 , bj=  16 ========
(PID.TID 0000.0001)  OB_Jn = /* Northern OB local indices */
(PID.TID 0000.0001)    23 @      -99                            /* I = -2: 20 */
(PID.TID 0000.0001)  OB_Js = /* Southern OB local indices */
(PID.TID 0000.0001)    23 @      -99                            /* I = -2: 20 */
(PID.TID 0000.0001)  OB_Ie = /* Eastern OB local indices */
(PID.TID 0000.0001)    26 @      -99                            /* J = -2: 23 */
(PID.TID 0000.0001)  OB_Iw = /* Western OB local indices */
(PID.TID 0000.0001)    26 @      -99                            /* J = -2: 23 */
(PID.TID 0000.0001) ======== Tile bi=   2 , bj=  16 ========
(PID.TID 0000.0001)  OB_Jn = /* Northern OB local indices */
(PID.TID 0000.0001)    23 @      -99                            /* I = -2: 20 */
(PID.TID 0000.0001)  OB_Js = /* Southern OB local indices */
(PID.TID 0000.0001)    23 @      -99                            /* I = -2: 20 */
(PID.TID 0000.0001)  OB_Ie = /* Eastern OB local indices */
(PID.TID 0000.0001)    26 @      -99                            /* J = -2: 23 */
(PID.TID 0000.0001)  OB_Iw = /* Western OB local indices */
(PID.TID 0000.0001)    26 @      -99                            /* J = -2: 23 */
(PID.TID 0000.0001) ======== Tile bi=   3 , bj=  16 ========
(PID.TID 0000.0001)  OB_Jn = /* Northern OB local indices */
(PID.TID 0000.0001)    23 @      -99                            /* I = -2: 20 */
(PID.TID 0000.0001)  OB_Js = /* Southern OB local indices */
(PID.TID 0000.0001)    23 @      -99                            /* I = -2: 20 */
(PID.TID 0000.0001)  OB_Ie = /* Eastern OB local indices */
(PID.TID 0000.0001)    26 @      -99                            /* J = -2: 23 */
(PID.TID 0000.0001)  OB_Iw = /* Western OB local indices */
(PID.TID 0000.0001)    26 @      -99                            /* J = -2: 23 */
(PID.TID 0000.0001) ======== Tile bi=   4 , bj=  16 ========
(PID.TID 0000.0001)  OB_Jn = /* Northern OB local indices */
(PID.TID 0000.0001)    23 @      -99                            /* I = -2: 20 */
(PID.TID 0000.0001)  OB_Js = /* Southern OB local indices */
(PID.TID 0000.0001)    23 @      -99                            /* I = -2: 20 */
(PID.TID 0000.0001)  OB_Ie = /* Eastern OB local indices */
(PID.TID 0000.0001)    26 @      -99                            /* J = -2: 23 */
(PID.TID 0000.0001)  OB_Iw = /* Western OB local indices */
(PID.TID 0000.0001)    26 @      -99                            /* J = -2: 23 */
(PID.TID 0000.0001) ======== Tile bi=   5 , bj=  16 ========
(PID.TID 0000.0001)  OB_Jn = /* Northern OB local indices */
(PID.TID 0000.0001)    23 @      -99                            /* I = -2: 20 */
(PID.TID 0000.0001)  OB_Js = /* Southern OB local indices */
(PID.TID 0000.0001)    23 @      -99                            /* I = -2: 20 */
(PID.TID 0000.0001)  OB_Ie = /* Eastern OB local indices */
(PID.TID 0000.0001)    26 @      -99                            /* J = -2: 23 */
(PID.TID 0000.0001)  OB_Iw = /* Western OB local indices */
(PID.TID 0000.0001)    26 @      -99                            /* J = -2: 23 */
(PID.TID 0000.0001) ======== Tile bi=   6 , bj=  16 ========
(PID.TID 0000.0001)  OB_Jn = /* Northern OB local indices */
(PID.TID 0000.0001)    23 @      -99                            /* I = -2: 20 */
(PID.TID 0000.0001)  OB_Js = /* Southern OB local indices */
(PID.TID 0000.0001)    23 @      -99                            /* I = -2: 20 */
(PID.TID 0000.0001)  OB_Ie = /* Eastern OB local indices */
(PID.TID 0000.0001)    26 @      -99                            /* J = -2: 23 */
(PID.TID 0000.0001)  OB_Iw = /* Western OB local indices */
(PID.TID 0000.0001)    26 @      -99                            /* J = -2: 23 */
(PID.TID 0000.0001) ======== Tile bi=   7 , bj=  16 ========
(PID.TID 0000.0001)  OB_Jn = /* Northern OB local indices */
(PID.TID 0000.0001)    23 @      -99                            /* I = -2: 20 */
(PID.TID 0000.0001)  OB_Js = /* Southern OB local indices */
(PID.TID 0000.0001)    23 @      -99                            /* I = -2: 20 */
(PID.TID 0000.0001)  OB_Ie = /* Eastern OB local indices */
(PID.TID 0000.0001)    26 @      -99                            /* J = -2: 23 */
(PID.TID 0000.0001)  OB_Iw = /* Western OB local indices */
(PID.TID 0000.0001)    26 @      -99                            /* J = -2: 23 */
(PID.TID 0000.0001) ======== Tile bi=   8 , bj=  16 ========
(PID.TID 0000.0001)  OB_Jn = /* Northern OB local indices */
(PID.TID 0000.0001)    23 @      -99                            /* I = -2: 20 */
(PID.TID 0000.0001)  OB_Js = /* Southern OB local indices */
(PID.TID 0000.0001)    23 @      -99                            /* I = -2: 20 */
(PID.TID 0000.0001)  OB_Ie = /* Eastern OB local indices */
(PID.TID 0000.0001)    26 @      -99                            /* J = -2: 23 */
(PID.TID 0000.0001)  OB_Iw = /* Western OB local indices */
(PID.TID 0000.0001)    26 @      -99                            /* J = -2: 23 */
(PID.TID 0000.0001) ======== Tile bi=   9 , bj=  16 ========
(PID.TID 0000.0001)  OB_Jn = /* Northern OB local indices */
(PID.TID 0000.0001)    23 @      -99                            /* I = -2: 20 */
(PID.TID 0000.0001)  OB_Js = /* Southern OB local indices */
(PID.TID 0000.0001)    23 @      -99                            /* I = -2: 20 */
(PID.TID 0000.0001)  OB_Ie = /* Eastern OB local indices */
(PID.TID 0000.0001)    26 @      -99                            /* J = -2: 23 */
(PID.TID 0000.0001)  OB_Iw = /* Western OB local indices */
(PID.TID 0000.0001)    26 @      -99                            /* J = -2: 23 */
(PID.TID 0000.0001) ======== Tile bi=  10 , bj=  16 ========
(PID.TID 0000.0001)  OB_Jn = /* Northern OB local indices */
(PID.TID 0000.0001)    23 @      -99                            /* I = -2: 20 */
(PID.TID 0000.0001)  OB_Js = /* Southern OB local indices */
(PID.TID 0000.0001)    23 @      -99                            /* I = -2: 20 */
(PID.TID 0000.0001)  OB_Ie = /* Eastern OB local indices */
(PID.TID 0000.0001)    26 @      -99                            /* J = -2: 23 */
(PID.TID 0000.0001)  OB_Iw = /* Western OB local indices */
(PID.TID 0000.0001)    26 @      -99                            /* J = -2: 23 */
(PID.TID 0000.0001) ======== Tile bi=  11 , bj=  16 ========
(PID.TID 0000.0001)  OB_Jn = /* Northern OB local indices */
(PID.TID 0000.0001)    23 @      -99                            /* I = -2: 20 */
(PID.TID 0000.0001)  OB_Js = /* Southern OB local indices */
(PID.TID 0000.0001)    23 @      -99                            /* I = -2: 20 */
(PID.TID 0000.0001)  OB_Ie = /* Eastern OB local indices */
(PID.TID 0000.0001)    26 @      -99                            /* J = -2: 23 */
(PID.TID 0000.0001)  OB_Iw = /* Western OB local indices */
(PID.TID 0000.0001)    26 @      -99                            /* J = -2: 23 */
(PID.TID 0000.0001) ======== Tile bi=  12 , bj=  16 ========
(PID.TID 0000.0001)  OB_Jn = /* Northern OB local indices */
(PID.TID 0000.0001)    23 @      -99                            /* I = -2: 20 */
(PID.TID 0000.0001)  OB_Js = /* Southern OB local indices */
(PID.TID 0000.0001)    23 @      -99                            /* I = -2: 20 */
(PID.TID 0000.0001)  OB_Ie = /* Eastern OB local indices */
(PID.TID 0000.0001)    26 @      -99                            /* J = -2: 23 */
(PID.TID 0000.0001)  OB_Iw = /* Western OB local indices */
(PID.TID 0000.0001)    26 @      -99                            /* J = -2: 23 */
(PID.TID 0000.0001) ======== Tile bi=  13 , bj=  16 ========
(PID.TID 0000.0001)  OB_Jn = /* Northern OB local indices */
(PID.TID 0000.0001)    23 @      -99                            /* I = -2: 20 */
(PID.TID 0000.0001)  OB_Js = /* Southern OB local indices */
(PID.TID 0000.0001)    23 @      -99                            /* I = -2: 20 */
(PID.TID 0000.0001)  OB_Ie = /* Eastern OB local indices */
(PID.TID 0000.0001)    26 @      -99                            /* J = -2: 23 */
(PID.TID 0000.0001)  OB_Iw = /* Western OB local indices */
(PID.TID 0000.0001)    26 @      -99                            /* J = -2: 23 */
(PID.TID 0000.0001) ======== Tile bi=  14 , bj=  16 ========
(PID.TID 0000.0001)  OB_Jn = /* Northern OB local indices */
(PID.TID 0000.0001)    23 @      -99                            /* I = -2: 20 */
(PID.TID 0000.0001)  OB_Js = /* Southern OB local indices */
(PID.TID 0000.0001)    23 @      -99                            /* I = -2: 20 */
(PID.TID 0000.0001)  OB_Ie = /* Eastern OB local indices */
(PID.TID 0000.0001)    26 @      -99                            /* J = -2: 23 */
(PID.TID 0000.0001)  OB_Iw = /* Western OB local indices */
(PID.TID 0000.0001)    26 @      -99                            /* J = -2: 23 */
(PID.TID 0000.0001) ======== Tile bi=  15 , bj=  16 ========
(PID.TID 0000.0001)  OB_Jn = /* Northern OB local indices */
(PID.TID 0000.0001)    23 @      -99                            /* I = -2: 20 */
(PID.TID 0000.0001)  OB_Js = /* Southern OB local indices */
(PID.TID 0000.0001)    23 @      -99                            /* I = -2: 20 */
(PID.TID 0000.0001)  OB_Ie = /* Eastern OB local indices */
(PID.TID 0000.0001)    26 @      -99                            /* J = -2: 23 */
(PID.TID 0000.0001)  OB_Iw = /* Western OB local indices */
(PID.TID 0000.0001)    26 @      -99                            /* J = -2: 23 */
(PID.TID 0000.0001) ======== Tile bi=  16 , bj=  16 ========
(PID.TID 0000.0001)  OB_Jn = /* Northern OB local indices */
(PID.TID 0000.0001)    23 @      -99                            /* I = -2: 20 */
(PID.TID 0000.0001)  OB_Js = /* Southern OB local indices */
(PID.TID 0000.0001)    23 @      -99                            /* I = -2: 20 */
(PID.TID 0000.0001)  OB_Ie = /* Eastern OB local indices */
(PID.TID 0000.0001)    26 @      -99                            /* J = -2: 23 */
(PID.TID 0000.0001)  OB_Iw = /* Western OB local indices */
(PID.TID 0000.0001)    26 @      -99                            /* J = -2: 23 */
(PID.TID 0000.0001) // =======================================================
(PID.TID 0000.0001) // End of OBCS config. summary
(PID.TID 0000.0001) // =======================================================
(PID.TID 0000.0001) 
(PID.TID 0000.0001) OBCS_CHECK: #define ALLOW_ORLANSKI
(PID.TID 0000.0001) OBCS_CHECK: set-up OK
(PID.TID 0000.0001) OBCS_CHECK: check Inside Mask and OB locations: OK
(PID.TID 0000.0001) 
(PID.TID 0000.0001) GAD_CHECK: #define ALLOW_GENERIC_ADVDIFF
(PID.TID 0000.0001) // =======================================================
(PID.TID 0000.0001) // Check Model config. (CONFIG_CHECK):
(PID.TID 0000.0001) // CONFIG_CHECK : Normal End
(PID.TID 0000.0001) // =======================================================
(PID.TID 0000.0001) 
(PID.TID 0000.0001)  MDS_READ_FIELD: opening global file: ../input/feb_temp_30zlev_272x320.bin
(PID.TID 0000.0001)  MDS_READ_FIELD: opening global file: ../input/feb_salt_30zlev_272x320.bin
(PID.TID 0000.0001) Start initial hydrostatic pressure computation
(PID.TID 0000.0001) Pressure is predetermined for buoyancyRelation OCEANIC
(PID.TID 0000.0001) 
(PID.TID 0000.0001)  MDS_READ_FIELD: opening global file: ../input/merid_halfgauss2p5hr_272x320.bin
(PID.TID 0000.0001) // =======================================================
(PID.TID 0000.0001) // Model current state
(PID.TID 0000.0001) // =======================================================
(PID.TID 0000.0001) 
(PID.TID 0000.0001) // =======================================================
(PID.TID 0000.0001) // Begin MONITOR dynamic field statistics
(PID.TID 0000.0001) // =======================================================
(PID.TID 0000.0001) %MON time_tsnumber                =                     0
(PID.TID 0000.0001) %MON time_secondsf                =   0.0000000000000E+00
(PID.TID 0000.0001) %MON dynstat_eta_max              =   0.0000000000000E+00
(PID.TID 0000.0001) %MON dynstat_eta_min              =   0.0000000000000E+00
(PID.TID 0000.0001) %MON dynstat_eta_mean             =   0.0000000000000E+00
(PID.TID 0000.0001) %MON dynstat_eta_sd               =   0.0000000000000E+00
(PID.TID 0000.0001) %MON dynstat_eta_del2             =   0.0000000000000E+00
(PID.TID 0000.0001) %MON dynstat_uvel_max             =   0.0000000000000E+00
(PID.TID 0000.0001) %MON dynstat_uvel_min             =   0.0000000000000E+00
(PID.TID 0000.0001) %MON dynstat_uvel_mean            =   0.0000000000000E+00
(PID.TID 0000.0001) %MON dynstat_uvel_sd              =   0.0000000000000E+00
(PID.TID 0000.0001) %MON dynstat_uvel_del2            =   0.0000000000000E+00
(PID.TID 0000.0001) %MON dynstat_vvel_max             =   0.0000000000000E+00
(PID.TID 0000.0001) %MON dynstat_vvel_min             =   0.0000000000000E+00
(PID.TID 0000.0001) %MON dynstat_vvel_mean            =   0.0000000000000E+00
(PID.TID 0000.0001) %MON dynstat_vvel_sd              =   0.0000000000000E+00
(PID.TID 0000.0001) %MON dynstat_vvel_del2            =   0.0000000000000E+00
(PID.TID 0000.0001) %MON dynstat_wvel_max             =  -0.0000000000000E+00
(PID.TID 0000.0001) %MON dynstat_wvel_min             =  -0.0000000000000E+00
(PID.TID 0000.0001) %MON dynstat_wvel_mean            =   0.0000000000000E+00
(PID.TID 0000.0001) %MON dynstat_wvel_sd              =   0.0000000000000E+00
(PID.TID 0000.0001) %MON dynstat_wvel_del2            =   0.0000000000000E+00
(PID.TID 0000.0001) %MON dynstat_theta_max            =   1.6580000000000E+01
(PID.TID 0000.0001) %MON dynstat_theta_min            =   4.2492359550562E+00
(PID.TID 0000.0001) %MON dynstat_theta_mean           =   7.6151865133810E+00
(PID.TID 0000.0001) %MON dynstat_theta_sd             =   3.6062453982623E+00
(PID.TID 0000.0001) %MON dynstat_theta_del2           =   0.0000000000000E+00
(PID.TID 0000.0001) %MON dynstat_salt_max             =   3.4471483146067E+01
(PID.TID 0000.0001) %MON dynstat_salt_min             =   3.3630000000000E+01
(PID.TID 0000.0001) %MON dynstat_salt_mean            =   3.4187264832924E+01
(PID.TID 0000.0001) %MON dynstat_salt_sd              =   2.7103932489057E-01
(PID.TID 0000.0001) %MON dynstat_salt_del2            =   0.0000000000000E+00
(PID.TID 0000.0001) %MON trAdv_CFL_u_max              =   0.0000000000000E+00
(PID.TID 0000.0001) %MON trAdv_CFL_v_max              =   0.0000000000000E+00
(PID.TID 0000.0001) %MON trAdv_CFL_w_max              =   0.0000000000000E+00
(PID.TID 0000.0001) %MON advcfl_uvel_max              =   0.0000000000000E+00
(PID.TID 0000.0001) %MON advcfl_vvel_max              =   0.0000000000000E+00
(PID.TID 0000.0001) %MON advcfl_wvel_max              =   0.0000000000000E+00
(PID.TID 0000.0001) %MON advcfl_W_hf_max              =   0.0000000000000E+00
(PID.TID 0000.0001) %MON pe_b_mean                    =   0.0000000000000E+00
(PID.TID 0000.0001) %MON ke_max                       =   0.0000000000000E+00
(PID.TID 0000.0001) %MON ke_mean                      =   0.0000000000000E+00
(PID.TID 0000.0001) %MON ke_vol                       =   8.2760855027014E+14
(PID.TID 0000.0001) %MON vort_r_min                   =   0.0000000000000E+00
(PID.TID 0000.0001) %MON vort_r_max                   =   0.0000000000000E+00
(PID.TID 0000.0001) %MON vort_a_mean                  =   6.9582958995909E-04
(PID.TID 0000.0001) %MON vort_a_sd                    =   1.4232689282865E-06
(PID.TID 0000.0001) %MON vort_p_mean                  =   7.0012686801198E-04
(PID.TID 0000.0001) %MON vort_p_sd                    =   9.4515408742187E-05
(PID.TID 0000.0001) %MON surfExpan_theta_mean         =   0.0000000000000E+00
(PID.TID 0000.0001) %MON surfExpan_salt_mean          =   0.0000000000000E+00
(PID.TID 0000.0001) // =======================================================
(PID.TID 0000.0001) // End MONITOR dynamic field statistics
(PID.TID 0000.0001) // =======================================================
(PID.TID 0000.0001) // =======================================================
(PID.TID 0000.0001) // Begin OBCS MONITOR field statistics
(PID.TID 0000.0001) // =======================================================
(PID.TID 0000.0001) %MON obc_S_vVel_max               =   0.0000000000000E+00
(PID.TID 0000.0001) %MON obc_S_vVel_min               =   0.0000000000000E+00
(PID.TID 0000.0001) %MON obc_S_vVel_mean              =   0.0000000000000E+00
(PID.TID 0000.0001) %MON obc_S_vVel_sd                =   0.0000000000000E+00
(PID.TID 0000.0001) %MON obc_S_vVel_Int               =   0.0000000000000E+00
(PID.TID 0000.0001) // =======================================================
(PID.TID 0000.0001) // End OBCS MONITOR field statistics
(PID.TID 0000.0001) // =======================================================
 EXTERNAL_FIELDS_LOAD,         0 : iP,iLd,i0,i1=   60    0   60    1 ; Wght=  0.5000000000  0.5000000000
 EXTERNAL_FIELDS_LOAD, it=         0 : Reading new data, i0,i1=   60    1 (prev=   60    0 )
(PID.TID 0000.0001)  MDS_READ_FIELD: opening global file: ../input/merid_halfgauss2p5hr_272x320.bin
(PID.TID 0000.0001)  MDS_READ_FIELD: opening global file: ../input/merid_halfgauss2p5hr_272x320.bin
(PID.TID 0000.0001) SOLVE_FOR_PRESSURE: putPmEinXvector =    F
 cg2d: Sum(rhs),rhsMax =   2.88657986402541E-15  4.41522676649703E-06
 EXTERNAL_FIELDS_LOAD,         1 : iP,iLd,i0,i1=   60    1   60    1 ; Wght=  0.4500000000  0.5500000000
 cg2d: Sum(rhs),rhsMax =  -3.87467835594180E-14  1.35932161401690E-05
 EXTERNAL_FIELDS_LOAD,         2 : iP,iLd,i0,i1=   60    1   60    1 ; Wght=  0.4000000000  0.6000000000
 cg2d: Sum(rhs),rhsMax =  -3.05311331771918E-14  2.74854044094812E-05
 EXTERNAL_FIELDS_LOAD,         3 : iP,iLd,i0,i1=   60    1   60    1 ; Wght=  0.3500000000  0.6500000000
 cg2d: Sum(rhs),rhsMax =   4.64073224293315E-14  4.59080887660241E-05
 EXTERNAL_FIELDS_LOAD,         4 : iP,iLd,i0,i1=   60    1   60    1 ; Wght=  0.3000000000  0.7000000000
 cg2d: Sum(rhs),rhsMax =  -1.68753899743024E-14  6.85666700581998E-05
 EXTERNAL_FIELDS_LOAD,         5 : iP,iLd,i0,i1=   60    1   60    1 ; Wght=  0.2500000000  0.7500000000
 cg2d: Sum(rhs),rhsMax =  -3.33066907387547E-16  9.50816174936609E-05
 EXTERNAL_FIELDS_LOAD,         6 : iP,iLd,i0,i1=   60    1   60    1 ; Wght=  0.2000000000  0.8000000000
 cg2d: Sum(rhs),rhsMax =   2.54241072639161E-14  1.25013236181657E-04
 EXTERNAL_FIELDS_LOAD,         7 : iP,iLd,i0,i1=   60    1   60    1 ; Wght=  0.1500000000  0.8500000000
 cg2d: Sum(rhs),rhsMax =  -3.11972669919669E-14  1.57883782003252E-04
 EXTERNAL_FIELDS_LOAD,         8 : iP,iLd,i0,i1=   60    1   60    1 ; Wght=  0.1000000000  0.9000000000
 cg2d: Sum(rhs),rhsMax =   6.50590692430342E-14  1.93196144656561E-04
 EXTERNAL_FIELDS_LOAD,         9 : iP,iLd,i0,i1=   60    1   60    1 ; Wght=  0.0500000000  0.9500000000
 cg2d: Sum(rhs),rhsMax =  -2.20934381900406E-14  2.30448838579196E-04
 EXTERNAL_FIELDS_LOAD,        10 : iP,iLd,i0,i1=   60    1    1    2 ; Wght=  1.0000000000  0.0000000000
 EXTERNAL_FIELDS_LOAD, it=        10 : Reading new data, i0,i1=    1    2 (prev=   60    1 )
(PID.TID 0000.0001)  MDS_READ_FIELD: opening global file: ../input/merid_halfgauss2p5hr_272x320.bin
(PID.TID 0000.0001)  MDS_READ_FIELD: opening global file: ../input/merid_halfgauss2p5hr_272x320.bin
 cg2d: Sum(rhs),rhsMax =  -1.47659662275146E-14  2.69147452620020E-04
 EXTERNAL_FIELDS_LOAD,        11 : iP,iLd,i0,i1=    1    2    1    2 ; Wght=  0.9500000000  0.0500000000
 cg2d: Sum(rhs),rhsMax =   1.50990331349021E-14  3.08948607332838E-04
 EXTERNAL_FIELDS_LOAD,        12 : iP,iLd,i0,i1=    1    2    1    2 ; Wght=  0.9000000000  0.1000000000
 cg2d: Sum(rhs),rhsMax =   2.88657986402541E-15  3.49474604058074E-04
 EXTERNAL_FIELDS_LOAD,        13 : iP,iLd,i0,i1=    1    2    1    2 ; Wght=  0.8500000000  0.1500000000
 cg2d: Sum(rhs),rhsMax =   8.99280649946377E-15  3.90362803068809E-04
 EXTERNAL_FIELDS_LOAD,        14 : iP,iLd,i0,i1=    1    2    1    2 ; Wght=  0.8000000000  0.2000000000
 cg2d: Sum(rhs),rhsMax =  -1.57651669496772E-14  4.31267156291093E-04
 EXTERNAL_FIELDS_LOAD,        15 : iP,iLd,i0,i1=    1    2    1    2 ; Wght=  0.7500000000  0.2500000000
 cg2d: Sum(rhs),rhsMax =  -1.03250741290140E-14  4.71859663385239E-04
 EXTERNAL_FIELDS_LOAD,        16 : iP,iLd,i0,i1=    1    2    1    2 ; Wght=  0.7000000000  0.3000000000
 cg2d: Sum(rhs),rhsMax =  -2.77555756156289E-14  5.11832212761556E-04
 EXTERNAL_FIELDS_LOAD,        17 : iP,iLd,i0,i1=    1    2    1    2 ; Wght=  0.6500000000  0.3500000000
 cg2d: Sum(rhs),rhsMax =   1.50990331349021E-14  5.50898954189475E-04
 EXTERNAL_FIELDS_LOAD,        18 : iP,iLd,i0,i1=    1    2    1    2 ; Wght=  0.6000000000  0.4000000000
 cg2d: Sum(rhs),rhsMax =   4.15223411209809E-14  5.88799203623793E-04
 EXTERNAL_FIELDS_LOAD,        19 : iP,iLd,i0,i1=    1    2    1    2 ; Wght=  0.5500000000  0.4500000000
 cg2d: Sum(rhs),rhsMax =   2.53130849614536E-14  6.25300748701337E-04
(PID.TID 0000.0001)      cg2d_init_res =   3.02924431305764E-01
(PID.TID 0000.0001)      cg2d_iters(min,last) =      -1      32
(PID.TID 0000.0001)      cg2d_last_res =   7.78181363774995E-08
(PID.TID 0000.0001) // =======================================================
(PID.TID 0000.0001) // Begin MONITOR dynamic field statistics
(PID.TID 0000.0001) // =======================================================
(PID.TID 0000.0001) %MON time_tsnumber                =                    20
(PID.TID 0000.0001) %MON time_secondsf                =   1.2000000000000E+03
(PID.TID 0000.0001) %MON dynstat_eta_max              =   1.0003949073787E-03
(PID.TID 0000.0001) %MON dynstat_eta_min              =  -2.3308191237628E-04
(PID.TID 0000.0001) %MON dynstat_eta_mean             =  -4.5077797742352E-21
(PID.TID 0000.0001) %MON dynstat_eta_sd               =   4.1730014218902E-05
(PID.TID 0000.0001) %MON dynstat_eta_del2             =   6.5955352620064E-08
(PID.TID 0000.0001) %MON dynstat_uvel_max             =   1.5839417175984E-03
(PID.TID 0000.0001) %MON dynstat_uvel_min             =  -6.8089704996840E-04
(PID.TID 0000.0001) %MON dynstat_uvel_mean            =   1.7115755989950E-06
(PID.TID 0000.0001) %MON dynstat_uvel_sd              =   4.0436017474404E-05
(PID.TID 0000.0001) %MON dynstat_uvel_del2            =   5.0928149738850E-09
(PID.TID 0000.0001) %MON dynstat_vvel_max             =   2.9607529533849E-03
(PID.TID 0000.0001) %MON dynstat_vvel_min             =  -9.2251908100752E-04
(PID.TID 0000.0001) %MON dynstat_vvel_mean            =   4.5982477040243E-06
(PID.TID 0000.0001) %MON dynstat_vvel_sd              =   1.1421245375159E-04
(PID.TID 0000.0001) %MON dynstat_vvel_del2            =   8.4042747557530E-09
(PID.TID 0000.0001) %MON dynstat_wvel_max             =   1.5579575584848E-06
(PID.TID 0000.0001) %MON dynstat_wvel_min             =  -1.2194665047909E-06
(PID.TID 0000.0001) %MON dynstat_wvel_mean            =  -4.1294579813336E-09
(PID.TID 0000.0001) %MON dynstat_wvel_sd              =   2.7701060483268E-08
(PID.TID 0000.0001) %MON dynstat_wvel_del2            =   4.7081343793380E-11
(PID.TID 0000.0001) %MON dynstat_theta_max            =   1.6579999995677E+01
(PID.TID 0000.0001) %MON dynstat_theta_min            =   4.2492361876384E+00
(PID.TID 0000.0001) %MON dynstat_theta_mean           =   7.6151865409860E+00
(PID.TID 0000.0001) %MON dynstat_theta_sd             =   3.6062441719777E+00
(PID.TID 0000.0001) %MON dynstat_theta_del2           =   1.4198009181963E-09
(PID.TID 0000.0001) %MON dynstat_salt_max             =   3.4471483119909E+01
(PID.TID 0000.0001) %MON dynstat_salt_min             =   3.3630000000000E+01
(PID.TID 0000.0001) %MON dynstat_salt_mean            =   3.4187264831196E+01
(PID.TID 0000.0001) %MON dynstat_salt_sd              =   2.7103926435484E-01
(PID.TID 0000.0001) %MON dynstat_salt_del2            =   5.6693251849824E-11
(PID.TID 0000.0001) %MON trAdv_CFL_u_max              =   4.2408696828283E-05
(PID.TID 0000.0001) %MON trAdv_CFL_v_max              =   8.1112503575358E-05
(PID.TID 0000.0001) %MON trAdv_CFL_w_max              =   4.6214004595979E-05
(PID.TID 0000.0001) %MON advcfl_uvel_max              =   4.7319509587682E-05
(PID.TID 0000.0001) %MON advcfl_vvel_max              =   8.8407075347414E-05
(PID.TID 0000.0001) %MON advcfl_wvel_max              =   9.3477453509089E-05
(PID.TID 0000.0001) %MON advcfl_W_hf_max              =   3.5133401344592E-05
(PID.TID 0000.0001) %MON pe_b_mean                    =   9.1289144369598E-12
(PID.TID 0000.0001) %MON ke_max                       =   4.5416383874704E-06
(PID.TID 0000.0001) %MON ke_mean                      =   7.3452183026939E-09
(PID.TID 0000.0001) %MON ke_vol                       =   8.2760855027014E+14
(PID.TID 0000.0001) %MON vort_r_min                   =  -1.6596959536859E-06
(PID.TID 0000.0001) %MON vort_r_max                   =   2.2624509086709E-06
(PID.TID 0000.0001) %MON vort_a_mean                  =   6.9582958995909E-04
(PID.TID 0000.0001) %MON vort_a_sd                    =   1.4232819244566E-06
(PID.TID 0000.0001) %MON vort_p_mean                  =   7.0012686801198E-04
(PID.TID 0000.0001) %MON vort_p_sd                    =   9.4515391881560E-05
(PID.TID 0000.0001) %MON surfExpan_theta_mean         =   2.3351173636991E-14
(PID.TID 0000.0001) %MON surfExpan_salt_mean          =   1.1516225700601E-22
(PID.TID 0000.0001) // =======================================================
(PID.TID 0000.0001) // End MONITOR dynamic field statistics
(PID.TID 0000.0001) // =======================================================
(PID.TID 0000.0001) // =======================================================
(PID.TID 0000.0001) // Begin OBCS MONITOR field statistics
(PID.TID 0000.0001) // =======================================================
(PID.TID 0000.0001) %MON obc_S_vVel_max               =   1.7835533933870E-03
(PID.TID 0000.0001) %MON obc_S_vVel_min               =  -3.9275038639160E-06
(PID.TID 0000.0001) %MON obc_S_vVel_mean              =  -2.0482241736989E-21
(PID.TID 0000.0001) %MON obc_S_vVel_sd                =   7.9843366661904E-05
(PID.TID 0000.0001) %MON obc_S_vVel_Int               =  -3.4778846469408E-12
(PID.TID 0000.0001) // =======================================================
(PID.TID 0000.0001) // End OBCS MONITOR field statistics
(PID.TID 0000.0001) // =======================================================
 EXTERNAL_FIELDS_LOAD,        20 : iP,iLd,i0,i1=    1    2    1    2 ; Wght=  0.5000000000  0.5000000000
 cg2d: Sum(rhs),rhsMax =   8.23785484271866E-14  6.60203328680986E-04
 EXTERNAL_FIELDS_LOAD,        21 : iP,iLd,i0,i1=    1    2    1    2 ; Wght=  0.4500000000  0.5500000000
 cg2d: Sum(rhs),rhsMax =  -2.22044604925031E-15  6.93342008636224E-04
 EXTERNAL_FIELDS_LOAD,        22 : iP,iLd,i0,i1=    1    2    1    2 ; Wght=  0.4000000000  0.6000000000
 cg2d: Sum(rhs),rhsMax =   5.30686605770825E-14  7.24590153272789E-04
 EXTERNAL_FIELDS_LOAD,        23 : iP,iLd,i0,i1=    1    2    1    2 ; Wght=  0.3500000000  0.6500000000
 cg2d: Sum(rhs),rhsMax =  -2.26485497023532E-14  7.53861726152399E-04
 EXTERNAL_FIELDS_LOAD,        24 : iP,iLd,i0,i1=    1    2    1    2 ; Wght=  0.3000000000  0.7000000000
 cg2d: Sum(rhs),rhsMax =  -2.04281036531029E-14  7.81112688158795E-04
 EXTERNAL_FIELDS_LOAD,        25 : iP,iLd,i0,i1=    1    2    1    2 ; Wght=  0.2500000000  0.7500000000
 cg2d: Sum(rhs),rhsMax =  -7.70494779089859E-14  8.06341336080734E-04
 EXTERNAL_FIELDS_LOAD,        26 : iP,iLd,i0,i1=    1    2    1    2 ; Wght=  0.2000000000  0.8000000000
 cg2d: Sum(rhs),rhsMax =   1.15463194561016E-14  8.29587499109775E-04
 EXTERNAL_FIELDS_LOAD,        27 : iP,iLd,i0,i1=    1    2    1    2 ; Wght=  0.1500000000  0.8500000000
 cg2d: Sum(rhs),rhsMax =   5.48450174164827E-14  8.50930589249178E-04
 EXTERNAL_FIELDS_LOAD,        28 : iP,iLd,i0,i1=    1    2    1    2 ; Wght=  0.1000000000  0.9000000000
 cg2d: Sum(rhs),rhsMax =   5.01820807130571E-14  8.70486573727748E-04
 EXTERNAL_FIELDS_LOAD,        29 : iP,iLd,i0,i1=    1    2    1    2 ; Wght=  0.0500000000  0.9500000000
 cg2d: Sum(rhs),rhsMax =   3.55271367880050E-15  8.88403997882588E-04
 EXTERNAL_FIELDS_LOAD,        30 : iP,iLd,i0,i1=    1    2    2    3 ; Wght=  1.0000000000  0.0000000000
 EXTERNAL_FIELDS_LOAD, it=        30 : Reading new data, i0,i1=    2    3 (prev=    1    2 )
(PID.TID 0000.0001)  MDS_READ_FIELD: opening global file: ../input/merid_halfgauss2p5hr_272x320.bin
(PID.TID 0000.0001)  MDS_READ_FIELD: opening global file: ../input/merid_halfgauss2p5hr_272x320.bin
 cg2d: Sum(rhs),rhsMax =  -8.79296635503124E-14  9.04859232006312E-04
 EXTERNAL_FIELDS_LOAD,        31 : iP,iLd,i0,i1=    2    3    2    3 ; Wght=  0.9500000000  0.0500000000
 cg2d: Sum(rhs),rhsMax =  -1.40332190312620E-13  9.20665276591357E-04
 EXTERNAL_FIELDS_LOAD,        32 : iP,iLd,i0,i1=    2    3    2    3 ; Wght=  0.9000000000  0.1000000000
 cg2d: Sum(rhs),rhsMax =   4.44089209850063E-16  9.36400231869391E-04
 EXTERNAL_FIELDS_LOAD,        33 : iP,iLd,i0,i1=    2    3    2    3 ; Wght=  0.8500000000  0.1500000000
 cg2d: Sum(rhs),rhsMax =  -4.44089209850063E-16  9.52606728782526E-04
 EXTERNAL_FIELDS_LOAD,        34 : iP,iLd,i0,i1=    2    3    2    3 ; Wght=  0.8000000000  0.2000000000
 cg2d: Sum(rhs),rhsMax =  -9.28146448586631E-14  9.69780123851362E-04
 EXTERNAL_FIELDS_LOAD,        35 : iP,iLd,i0,i1=    2    3    2    3 ; Wght=  0.7500000000  0.2500000000
 cg2d: Sum(rhs),rhsMax =   4.48530101948563E-14  9.88359386474098E-04
 EXTERNAL_FIELDS_LOAD,        36 : iP,iLd,i0,i1=    2    3    2    3 ; Wght=  0.7000000000  0.3000000000
 cg2d: Sum(rhs),rhsMax =  -2.62012633811537E-14  1.00872103716867E-03
 EXTERNAL_FIELDS_LOAD,        37 : iP,iLd,i0,i1=    2    3    2    3 ; Wght=  0.6500000000  0.3500000000
 cg2d: Sum(rhs),rhsMax =  -3.46389583683049E-14  1.03117571898392E-03
 EXTERNAL_FIELDS_LOAD,        38 : iP,iLd,i0,i1=    2    3    2    3 ; Wght=  0.6000000000  0.4000000000
 cg2d: Sum(rhs),rhsMax =  -3.24185123190546E-14  1.05596698025377E-03
 EXTERNAL_FIELDS_LOAD,        39 : iP,iLd,i0,i1=    2    3    2    3 ; Wght=  0.5500000000  0.4500000000
 cg2d: Sum(rhs),rhsMax =  -4.04121180963557E-14  1.08327182714622E-03
(PID.TID 0000.0001)      cg2d_init_res =   2.32862825261340E-01
(PID.TID 0000.0001)      cg2d_iters(min,last) =      -1      31
(PID.TID 0000.0001)      cg2d_last_res =   8.91756596987841E-08
(PID.TID 0000.0001) // =======================================================
(PID.TID 0000.0001) // Begin MONITOR dynamic field statistics
(PID.TID 0000.0001) // =======================================================
(PID.TID 0000.0001) %MON time_tsnumber                =                    40
(PID.TID 0000.0001) %MON time_secondsf                =   2.4000000000000E+03
(PID.TID 0000.0001) %MON dynstat_eta_max              =   3.3572158921505E-03
(PID.TID 0000.0001) %MON dynstat_eta_min              =  -1.2563638959598E-03
(PID.TID 0000.0001) %MON dynstat_eta_mean             =   2.5006661521305E-21
(PID.TID 0000.0001) %MON dynstat_eta_sd               =   1.1176405272200E-04
(PID.TID 0000.0001) %MON dynstat_eta_del2             =   1.3172293910498E-07
(PID.TID 0000.0001) %MON dynstat_uvel_max             =   6.4290226651450E-03
(PID.TID 0000.0001) %MON dynstat_uvel_min             =  -3.1802009952305E-03
(PID.TID 0000.0001) %MON dynstat_uvel_mean            =   7.7227658024531E-06
(PID.TID 0000.0001) %MON dynstat_uvel_sd              =   2.0939101782014E-04
(PID.TID 0000.0001) %MON dynstat_uvel_del2            =   2.0431104575145E-08
(PID.TID 0000.0001) %MON dynstat_vvel_max             =   9.8798032538914E-03
(PID.TID 0000.0001) %MON dynstat_vvel_min             =  -3.0939225488673E-03
(PID.TID 0000.0001) %MON dynstat_vvel_mean            =   9.7387277228202E-06
(PID.TID 0000.0001) %MON dynstat_vvel_sd              =   3.0179945100065E-04
(PID.TID 0000.0001) %MON dynstat_vvel_del2            =   2.5595699507063E-08
(PID.TID 0000.0001) %MON dynstat_wvel_max             =   2.5121072892028E-06
(PID.TID 0000.0001) %MON dynstat_wvel_min             =  -4.9886091273909E-06
(PID.TID 0000.0001) %MON dynstat_wvel_mean            =  -1.1901660624554E-08
(PID.TID 0000.0001) %MON dynstat_wvel_sd              =   9.8251024655548E-08
(PID.TID 0000.0001) %MON dynstat_wvel_del2            =   1.1886364061923E-10
(PID.TID 0000.0001) %MON dynstat_theta_max            =   1.6579999965890E+01
(PID.TID 0000.0001) %MON dynstat_theta_min            =   4.2492364514743E+00
(PID.TID 0000.0001) %MON dynstat_theta_mean           =   7.6151866984605E+00
(PID.TID 0000.0001) %MON dynstat_theta_sd             =   3.6062430767765E+00
(PID.TID 0000.0001) %MON dynstat_theta_del2           =   3.2706043424980E-09
(PID.TID 0000.0001) %MON dynstat_salt_max             =   3.4471483090235E+01
(PID.TID 0000.0001) %MON dynstat_salt_min             =   3.3630000000000E+01
(PID.TID 0000.0001) %MON dynstat_salt_mean            =   3.4187264821266E+01
(PID.TID 0000.0001) %MON dynstat_salt_sd              =   2.7103921002319E-01
(PID.TID 0000.0001) %MON dynstat_salt_del2            =   1.2898143995313E-10
(PID.TID 0000.0001) %MON trAdv_CFL_u_max              =   1.8250517239250E-04
(PID.TID 0000.0001) %MON trAdv_CFL_v_max              =   2.8139637655036E-04
(PID.TID 0000.0001) %MON trAdv_CFL_w_max              =   1.8099479581379E-04
(PID.TID 0000.0001) %MON advcfl_uvel_max              =   1.9206401110770E-04
(PID.TID 0000.0001) %MON advcfl_vvel_max              =   2.9500756207499E-04
(PID.TID 0000.0001) %MON advcfl_wvel_max              =   1.5072643735217E-04
(PID.TID 0000.0001) %MON advcfl_W_hf_max              =   1.4965827382173E-04
(PID.TID 0000.0001) %MON pe_b_mean                    =   6.5482666250894E-11
(PID.TID 0000.0001) %MON ke_max                       =   5.2884846078048E-05
(PID.TID 0000.0001) %MON ke_mean                      =   6.7488155843368E-08
(PID.TID 0000.0001) %MON ke_vol                       =   8.2760855027014E+14
(PID.TID 0000.0001) %MON vort_r_min                   =  -5.4752190882281E-06
(PID.TID 0000.0001) %MON vort_r_max                   =   8.1187146212063E-06
(PID.TID 0000.0001) %MON vort_a_mean                  =   6.9582958995909E-04
(PID.TID 0000.0001) %MON vort_a_sd                    =   1.4233433974659E-06
(PID.TID 0000.0001) %MON vort_p_mean                  =   7.0012686801198E-04
(PID.TID 0000.0001) %MON vort_p_sd                    =   9.4514952108495E-05
(PID.TID 0000.0001) %MON surfExpan_theta_mean         =   6.2691539849397E-14
(PID.TID 0000.0001) %MON surfExpan_salt_mean          =   7.0125588641158E-22
(PID.TID 0000.0001) // =======================================================
(PID.TID 0000.0001) // End MONITOR dynamic field statistics
(PID.TID 0000.0001) // =======================================================
(PID.TID 0000.0001) // =======================================================
(PID.TID 0000.0001) // Begin OBCS MONITOR field statistics
(PID.TID 0000.0001) // =======================================================
(PID.TID 0000.0001) %MON obc_S_vVel_max               =   5.0244078791632E-03
(PID.TID 0000.0001) %MON obc_S_vVel_min               =  -1.1759586525283E-05
(PID.TID 0000.0001) %MON obc_S_vVel_mean              =   5.2396249883016E-21
(PID.TID 0000.0001) %MON obc_S_vVel_sd                =   2.2492715020326E-04
(PID.TID 0000.0001) %MON obc_S_vVel_Int               =   8.8968832301362E-12
(PID.TID 0000.0001) // =======================================================
(PID.TID 0000.0001) // End OBCS MONITOR field statistics
(PID.TID 0000.0001) // =======================================================
 EXTERNAL_FIELDS_LOAD,        40 : iP,iLd,i0,i1=    2    3    2    3 ; Wght=  0.5000000000  0.5000000000
 cg2d: Sum(rhs),rhsMax =  -7.23865412055602E-14  1.11320263051666E-03
 EXTERNAL_FIELDS_LOAD,        41 : iP,iLd,i0,i1=    2    3    2    3 ; Wght=  0.4500000000  0.5500000000
 cg2d: Sum(rhs),rhsMax =  -2.00284233642378E-13  1.14581002755850E-03
 EXTERNAL_FIELDS_LOAD,        42 : iP,iLd,i0,i1=    2    3    2    3 ; Wght=  0.4000000000  0.6000000000
 cg2d: Sum(rhs),rhsMax =  -1.24789067967868E-13  1.18108653135832E-03
 EXTERNAL_FIELDS_LOAD,        43 : iP,iLd,i0,i1=    2    3    2    3 ; Wght=  0.3500000000  0.6500000000
 cg2d: Sum(rhs),rhsMax =  -1.53654866608122E-13  1.21897063857298E-03
 EXTERNAL_FIELDS_LOAD,        44 : iP,iLd,i0,i1=    2    3    2    3 ; Wght=  0.3000000000  0.7000000000
 cg2d: Sum(rhs),rhsMax =   4.30766533554561E-14  1.25935129738616E-03
 EXTERNAL_FIELDS_LOAD,        45 : iP,iLd,i0,i1=    2    3    2    3 ; Wght=  0.2500000000  0.7500000000
 cg2d: Sum(rhs),rhsMax =   7.32747196252603E-14  1.30207265775715E-03
 EXTERNAL_FIELDS_LOAD,        46 : iP,iLd,i0,i1=    2    3    2    3 ; Wght=  0.2000000000  0.8000000000
 cg2d: Sum(rhs),rhsMax =  -9.19264664389630E-14  1.34693906962585E-03
 EXTERNAL_FIELDS_LOAD,        47 : iP,iLd,i0,i1=    2    3    2    3 ; Wght=  0.1500000000  0.8500000000
 cg2d: Sum(rhs),rhsMax =   5.15143483426073E-14  1.39372032066555E-03
 EXTERNAL_FIELDS_LOAD,        48 : iP,iLd,i0,i1=    2    3    2    3 ; Wght=  0.1000000000  0.9000000000
 cg2d: Sum(rhs),rhsMax =  -8.08242361927114E-14  1.44215711407748E-03
 EXTERNAL_FIELDS_LOAD,        49 : iP,iLd,i0,i1=    2    3    2    3 ; Wght=  0.0500000000  0.9500000000
 cg2d: Sum(rhs),rhsMax =   1.84297022087776E-13  1.49196678122573E-03
 EXTERNAL_FIELDS_LOAD,        50 : iP,iLd,i0,i1=    2    3    3    4 ; Wght=  1.0000000000  0.0000000000
 EXTERNAL_FIELDS_LOAD, it=        50 : Reading new data, i0,i1=    3    4 (prev=    2    3 )
(PID.TID 0000.0001)  MDS_READ_FIELD: opening global file: ../input/merid_halfgauss2p5hr_272x320.bin
(PID.TID 0000.0001)  MDS_READ_FIELD: opening global file: ../input/merid_halfgauss2p5hr_272x320.bin
 cg2d: Sum(rhs),rhsMax =  -7.37188088351104E-14  1.54284920721188E-03
 EXTERNAL_FIELDS_LOAD,        51 : iP,iLd,i0,i1=    3    4    3    4 ; Wght=  0.9500000000  0.0500000000
 cg2d: Sum(rhs),rhsMax =   2.03392858111329E-13  1.59524343835690E-03
 EXTERNAL_FIELDS_LOAD,        52 : iP,iLd,i0,i1=    3    4    3    4 ; Wght=  0.9000000000  0.1000000000
 cg2d: Sum(rhs),rhsMax =  -1.33670852164869E-13  1.64927588575834E-03
 EXTERNAL_FIELDS_LOAD,        53 : iP,iLd,i0,i1=    3    4    3    4 ; Wght=  0.8500000000  0.1500000000
 cg2d: Sum(rhs),rhsMax =   1.03472785895065E-13  1.70501726393852E-03
 EXTERNAL_FIELDS_LOAD,        54 : iP,iLd,i0,i1=    3    4    3    4 ; Wght=  0.8000000000  0.2000000000
 cg2d: Sum(rhs),rhsMax =  -1.17239551400417E-13  1.76248132919325E-03
 EXTERNAL_FIELDS_LOAD,        55 : iP,iLd,i0,i1=    3    4    3    4 ; Wght=  0.7500000000  0.2500000000
 cg2d: Sum(rhs),rhsMax =  -3.15303338993544E-14  1.82162638647755E-03
 EXTERNAL_FIELDS_LOAD,        56 : iP,iLd,i0,i1=    3    4    3    4 ; Wght=  0.7000000000  0.3000000000
 cg2d: Sum(rhs),rhsMax =   4.70734562441066E-14  1.88235971386778E-03
 EXTERNAL_FIELDS_LOAD,        57 : iP,iLd,i0,i1=    3    4    3    4 ; Wght=  0.6500000000  0.3500000000
 cg2d: Sum(rhs),rhsMax =  -1.20348175869367E-13  1.94454413134472E-03
 EXTERNAL_FIELDS_LOAD,        58 : iP,iLd,i0,i1=    3    4    3    4 ; Wght=  0.6000000000  0.4000000000
 cg2d: Sum(rhs),rhsMax =  -2.17603712826531E-14  2.00800598215611E-03
 EXTERNAL_FIELDS_LOAD,        59 : iP,iLd,i0,i1=    3    4    3    4 ; Wght=  0.5500000000  0.4500000000
 cg2d: Sum(rhs),rhsMax =   9.37028232783632E-14  2.07254382419243E-03
(PID.TID 0000.0001)      cg2d_init_res =   1.99039604386469E-01
(PID.TID 0000.0001)      cg2d_iters(min,last) =      -1      31
(PID.TID 0000.0001)      cg2d_last_res =   7.41569902649415E-08
(PID.TID 0000.0001) // =======================================================
(PID.TID 0000.0001) // Begin MONITOR dynamic field statistics
(PID.TID 0000.0001) // =======================================================
(PID.TID 0000.0001) %MON time_tsnumber                =                    60
(PID.TID 0000.0001) %MON time_secondsf                =   3.6000000000000E+03
(PID.TID 0000.0001) %MON dynstat_eta_max              =   6.9104247208441E-03
(PID.TID 0000.0001) %MON dynstat_eta_min              =  -3.5850309039686E-03
(PID.TID 0000.0001) %MON dynstat_eta_mean             =  -3.8299676329998E-20
(PID.TID 0000.0001) %MON dynstat_eta_sd               =   2.3960323410368E-04
(PID.TID 0000.0001) %MON dynstat_eta_del2             =   2.5561525653722E-07
(PID.TID 0000.0001) %MON dynstat_uvel_max             =   1.5729335974444E-02
(PID.TID 0000.0001) %MON dynstat_uvel_min             =  -8.7027010306575E-03
(PID.TID 0000.0001) %MON dynstat_uvel_mean            =   1.7829378803945E-05
(PID.TID 0000.0001) %MON dynstat_uvel_sd              =   5.5581017728486E-04
(PID.TID 0000.0001) %MON dynstat_uvel_del2            =   5.3734252082246E-08
(PID.TID 0000.0001) %MON dynstat_vvel_max             =   2.2601830999610E-02
(PID.TID 0000.0001) %MON dynstat_vvel_min             =  -5.7636107264910E-03
(PID.TID 0000.0001) %MON dynstat_vvel_mean            =   1.4565422042260E-05
(PID.TID 0000.0001) %MON dynstat_vvel_sd              =   5.3754365241947E-04
(PID.TID 0000.0001) %MON dynstat_vvel_del2            =   5.7212902462279E-08
(PID.TID 0000.0001) %MON dynstat_wvel_max             =   5.0988580557221E-06
(PID.TID 0000.0001) %MON dynstat_wvel_min             =  -1.3641722989888E-05
(PID.TID 0000.0001) %MON dynstat_wvel_mean            =  -2.1469039423171E-08
(PID.TID 0000.0001) %MON dynstat_wvel_sd              =   1.6616943945594E-07
(PID.TID 0000.0001) %MON dynstat_wvel_del2            =   2.4179562266125E-10
(PID.TID 0000.0001) %MON dynstat_theta_max            =   1.6579999890686E+01
(PID.TID 0000.0001) %MON dynstat_theta_min            =   4.2492366778296E+00
(PID.TID 0000.0001) %MON dynstat_theta_mean           =   7.6151870303715E+00
(PID.TID 0000.0001) %MON dynstat_theta_sd             =   3.6062421568240E+00
(PID.TID 0000.0001) %MON dynstat_theta_del2           =   6.6398640708484E-09
(PID.TID 0000.0001) %MON dynstat_salt_max             =   3.4471483064776E+01
(PID.TID 0000.0001) %MON dynstat_salt_min             =   3.3629999999999E+01
(PID.TID 0000.0001) %MON dynstat_salt_mean            =   3.4187264800261E+01
(PID.TID 0000.0001) %MON dynstat_salt_sd              =   2.7103916407356E-01
(PID.TID 0000.0001) %MON dynstat_salt_del2            =   2.5815608486334E-10
(PID.TID 0000.0001) %MON trAdv_CFL_u_max              =   4.5100484658138E-04
(PID.TID 0000.0001) %MON trAdv_CFL_v_max              =   6.4959032232697E-04
(PID.TID 0000.0001) %MON trAdv_CFL_w_max              =   4.5952817298468E-04
(PID.TID 0000.0001) %MON advcfl_uvel_max              =   4.6990647205072E-04
(PID.TID 0000.0001) %MON advcfl_vvel_max              =   6.7488297998237E-04
(PID.TID 0000.0001) %MON advcfl_wvel_max              =   3.8069924622942E-04
(PID.TID 0000.0001) %MON advcfl_W_hf_max              =   4.0925168969663E-04
(PID.TID 0000.0001) %MON pe_b_mean                    =   3.0095906064588E-10
(PID.TID 0000.0001) %MON ke_max                       =   2.8843794380217E-04
(PID.TID 0000.0001) %MON ke_mean                      =   2.9903807969388E-07
(PID.TID 0000.0001) %MON ke_vol                       =   8.2760855027014E+14
(PID.TID 0000.0001) %MON vort_r_min                   =  -1.3051369481387E-05
(PID.TID 0000.0001) %MON vort_r_max                   =   1.9081527134579E-05
(PID.TID 0000.0001) %MON vort_a_mean                  =   6.9582958995909E-04
(PID.TID 0000.0001) %MON vort_a_sd                    =   1.4235396058671E-06
(PID.TID 0000.0001) %MON vort_p_mean                  =   7.0012686801198E-04
(PID.TID 0000.0001) %MON vort_p_sd                    =   9.4513935723738E-05
(PID.TID 0000.0001) %MON surfExpan_theta_mean         =   1.9245139960532E-13
(PID.TID 0000.0001) %MON surfExpan_salt_mean          =   1.2976318601927E-21
(PID.TID 0000.0001) // =======================================================
(PID.TID 0000.0001) // End MONITOR dynamic field statistics
(PID.TID 0000.0001) // =======================================================
(PID.TID 0000.0001) // =======================================================
(PID.TID 0000.0001) // Begin OBCS MONITOR field statistics
(PID.TID 0000.0001) // =======================================================
(PID.TID 0000.0001) %MON obc_S_vVel_max               =   8.8313587642522E-03
(PID.TID 0000.0001) %MON obc_S_vVel_min               =  -2.1278783669148E-05
(PID.TID 0000.0001) %MON obc_S_vVel_mean              =   6.9045672202837E-23
(PID.TID 0000.0001) %MON obc_S_vVel_sd                =   3.9536126401556E-04
(PID.TID 0000.0001) %MON obc_S_vVel_Int               =   1.1723955140042E-13
(PID.TID 0000.0001) // =======================================================
(PID.TID 0000.0001) // End OBCS MONITOR field statistics
(PID.TID 0000.0001) // =======================================================
 EXTERNAL_FIELDS_LOAD,        60 : iP,iLd,i0,i1=    3    4    3    4 ; Wght=  0.5000000000  0.5000000000
 cg2d: Sum(rhs),rhsMax =  -2.79776202205539E-14  2.13793721228995E-03
 EXTERNAL_FIELDS_LOAD,        61 : iP,iLd,i0,i1=    3    4    3    4 ; Wght=  0.4500000000  0.5500000000
 cg2d: Sum(rhs),rhsMax =   1.00364161426114E-13  2.20395507063452E-03
 EXTERNAL_FIELDS_LOAD,        62 : iP,iLd,i0,i1=    3    4    3    4 ; Wght=  0.4000000000  0.6000000000
 cg2d: Sum(rhs),rhsMax =   1.86517468137026E-13  2.27036328880076E-03
 EXTERNAL_FIELDS_LOAD,        63 : iP,iLd,i0,i1=    3    4    3    4 ; Wght=  0.3500000000  0.6500000000
 cg2d: Sum(rhs),rhsMax =  -3.95239396766556E-14  2.33693130954984E-03
 EXTERNAL_FIELDS_LOAD,        64 : iP,iLd,i0,i1=    3    4    3    4 ; Wght=  0.3000000000  0.7000000000
 cg2d: Sum(rhs),rhsMax =   7.01660951563099E-14  2.40343759902707E-03
 EXTERNAL_FIELDS_LOAD,        65 : iP,iLd,i0,i1=    3    4    3    4 ; Wght=  0.2500000000  0.7500000000
 cg2d: Sum(rhs),rhsMax =  -1.06581410364015E-14  2.46967399201526E-03
 EXTERNAL_FIELDS_LOAD,        66 : iP,iLd,i0,i1=    3    4    3    4 ; Wght=  0.2000000000  0.8000000000
 cg2d: Sum(rhs),rhsMax =  -6.26165785888588E-14  2.53544898175211E-03
 EXTERNAL_FIELDS_LOAD,        67 : iP,iLd,i0,i1=    3    4    3    4 ; Wght=  0.1500000000  0.8500000000
 cg2d: Sum(rhs),rhsMax =  -8.52651282912120E-14  2.60059007423150E-03
 EXTERNAL_FIELDS_LOAD,        68 : iP,iLd,i0,i1=    3    4    3    4 ; Wght=  0.1000000000  0.9000000000
 cg2d: Sum(rhs),rhsMax =  -1.50546242139171E-13  2.66494535239146E-03
 EXTERNAL_FIELDS_LOAD,        69 : iP,iLd,i0,i1=    3    4    3    4 ; Wght=  0.0500000000  0.9500000000
 cg2d: Sum(rhs),rhsMax =   3.19744231092045E-14  2.72838439973355E-03
 EXTERNAL_FIELDS_LOAD,        70 : iP,iLd,i0,i1=    3    4    4    5 ; Wght=  1.0000000000  0.0000000000
 EXTERNAL_FIELDS_LOAD, it=        70 : Reading new data, i0,i1=    4    5 (prev=    3    4 )
(PID.TID 0000.0001)  MDS_READ_FIELD: opening global file: ../input/merid_halfgauss2p5hr_272x320.bin
(PID.TID 0000.0001)  MDS_READ_FIELD: opening global file: ../input/merid_halfgauss2p5hr_272x320.bin
 cg2d: Sum(rhs),rhsMax =  -7.06101843661600E-14  2.79079872063487E-03
 EXTERNAL_FIELDS_LOAD,        71 : iP,iLd,i0,i1=    4    5    4    5 ; Wght=  0.9500000000  0.0500000000
 cg2d: Sum(rhs),rhsMax =  -1.02140518265514E-14  2.85276880180733E-03
 EXTERNAL_FIELDS_LOAD,        72 : iP,iLd,i0,i1=    4    5    4    5 ; Wght=  0.9000000000  0.1000000000
 cg2d: Sum(rhs),rhsMax =  -1.68753899743024E-13  2.91462369168169E-03
 EXTERNAL_FIELDS_LOAD,        73 : iP,iLd,i0,i1=    4    5    4    5 ; Wght=  0.8500000000  0.1500000000
 cg2d: Sum(rhs),rhsMax =   9.50350909079134E-14  2.97666321275414E-03
 EXTERNAL_FIELDS_LOAD,        74 : iP,iLd,i0,i1=    4    5    4    5 ; Wght=  0.8000000000  0.2000000000
 cg2d: Sum(rhs),rhsMax =  -3.95239396766556E-14  3.03915071107808E-03
 EXTERNAL_FIELDS_LOAD,        75 : iP,iLd,i0,i1=    4    5    4    5 ; Wght=  0.7500000000  0.2500000000
 cg2d: Sum(rhs),rhsMax =   1.92734717074927E-13  3.10230825631481E-03
 EXTERNAL_FIELDS_LOAD,        76 : iP,iLd,i0,i1=    4    5    4    5 ; Wght=  0.7000000000  0.3000000000
 cg2d: Sum(rhs),rhsMax =   4.17443857259059E-14  3.16631456360897E-03
 EXTERNAL_FIELDS_LOAD,        77 : iP,iLd,i0,i1=    4    5    4    5 ; Wght=  0.6500000000  0.3500000000
 cg2d: Sum(rhs),rhsMax =  -9.76996261670138E-14  3.23130505982734E-03
 EXTERNAL_FIELDS_LOAD,        78 : iP,iLd,i0,i1=    4    5    4    5 ; Wght=  0.6000000000  0.4000000000
 cg2d: Sum(rhs),rhsMax =  -1.49658063719471E-13  3.29737354573846E-03
 EXTERNAL_FIELDS_LOAD,        79 : iP,iLd,i0,i1=    4    5    4    5 ; Wght=  0.5500000000  0.4500000000
 cg2d: Sum(rhs),rhsMax =  -1.12798659301916E-13  3.36457492329977E-03
(PID.TID 0000.0001)      cg2d_init_res =   1.48236344637505E-01
(PID.TID 0000.0001)      cg2d_iters(min,last) =      -1      30
(PID.TID 0000.0001)      cg2d_last_res =   8.83069867274483E-08
(PID.TID 0000.0001) // =======================================================
(PID.TID 0000.0001) // Begin MONITOR dynamic field statistics
(PID.TID 0000.0001) // =======================================================
(PID.TID 0000.0001) %MON time_tsnumber                =                    80
(PID.TID 0000.0001) %MON time_secondsf                =   4.8000000000000E+03
(PID.TID 0000.0001) %MON dynstat_eta_max              =   1.3341347248593E-02
(PID.TID 0000.0001) %MON dynstat_eta_min              =  -7.5100638976366E-03
(PID.TID 0000.0001) %MON dynstat_eta_mean             =   1.0318538227738E-19
(PID.TID 0000.0001) %MON dynstat_eta_sd               =   4.3021856071086E-04
(PID.TID 0000.0001) %MON dynstat_eta_del2             =   4.4089488071932E-07
(PID.TID 0000.0001) %MON dynstat_uvel_max             =   3.3263553179795E-02
(PID.TID 0000.0001) %MON dynstat_uvel_min             =  -1.8774604834736E-02
(PID.TID 0000.0001) %MON dynstat_uvel_mean            =   3.1652654009985E-05
(PID.TID 0000.0001) %MON dynstat_uvel_sd              =   1.1079734405599E-03
(PID.TID 0000.0001) %MON dynstat_uvel_del2            =   1.1256218053187E-07
(PID.TID 0000.0001) %MON dynstat_vvel_max             =   4.4707179767691E-02
(PID.TID 0000.0001) %MON dynstat_vvel_min             =  -1.0076982563934E-02
(PID.TID 0000.0001) %MON dynstat_vvel_mean            =   1.8787572756235E-05
(PID.TID 0000.0001) %MON dynstat_vvel_sd              =   7.9158928908824E-04
(PID.TID 0000.0001) %MON dynstat_vvel_del2            =   1.1093484808087E-07
(PID.TID 0000.0001) %MON dynstat_wvel_max             =   1.4526784137630E-05
(PID.TID 0000.0001) %MON dynstat_wvel_min             =  -2.8608602399041E-05
(PID.TID 0000.0001) %MON dynstat_wvel_mean            =  -3.1804614740137E-08
(PID.TID 0000.0001) %MON dynstat_wvel_sd              =   2.6746968959354E-07
(PID.TID 0000.0001) %MON dynstat_wvel_del2            =   4.3687856334460E-10
(PID.TID 0000.0001) %MON dynstat_theta_max            =   1.6579999759610E+01
(PID.TID 0000.0001) %MON dynstat_theta_min            =   4.2492367089656E+00
(PID.TID 0000.0001) %MON dynstat_theta_mean           =   7.6151875630261E+00
(PID.TID 0000.0001) %MON dynstat_theta_sd             =   3.6062414352922E+00
(PID.TID 0000.0001) %MON dynstat_theta_del2           =   1.2589638948189E-08
(PID.TID 0000.0001) %MON dynstat_salt_max             =   3.4471483061274E+01
(PID.TID 0000.0001) %MON dynstat_salt_min             =   3.3629999218632E+01
(PID.TID 0000.0001) %MON dynstat_salt_mean            =   3.4187264766378E+01
(PID.TID 0000.0001) %MON dynstat_salt_sd              =   2.7103912774057E-01
(PID.TID 0000.0001) %MON dynstat_salt_del2            =   4.7535719438027E-10
(PID.TID 0000.0001) %MON trAdv_CFL_u_max              =   9.6092396828399E-04
(PID.TID 0000.0001) %MON trAdv_CFL_v_max              =   1.2946026225660E-03
(PID.TID 0000.0001) %MON trAdv_CFL_w_max              =   9.3635773579216E-04
(PID.TID 0000.0001) %MON advcfl_uvel_max              =   9.9373291714185E-04
(PID.TID 0000.0001) %MON advcfl_vvel_max              =   1.3349411695339E-03
(PID.TID 0000.0001) %MON advcfl_wvel_max              =   7.9837960183369E-04
(PID.TID 0000.0001) %MON advcfl_W_hf_max              =   8.5825807197122E-04
(PID.TID 0000.0001) %MON pe_b_mean                    =   9.7028732284727E-10
(PID.TID 0000.0001) %MON ke_max                       =   1.1562060416017E-03
(PID.TID 0000.0001) %MON ke_mean                      =   9.2743689674387E-07
(PID.TID 0000.0001) %MON ke_vol                       =   8.2760855027014E+14
(PID.TID 0000.0001) %MON vort_r_min                   =  -2.6225003769359E-05
(PID.TID 0000.0001) %MON vort_r_max                   =   3.8814070391640E-05
(PID.TID 0000.0001) %MON vort_a_mean                  =   6.9582958995909E-04
(PID.TID 0000.0001) %MON vort_a_sd                    =   1.4240982483531E-06
(PID.TID 0000.0001) %MON vort_p_mean                  =   7.0012686801198E-04
(PID.TID 0000.0001) %MON vort_p_sd                    =   9.4512165582731E-05
(PID.TID 0000.0001) %MON surfExpan_theta_mean         =   4.1651458868601E-13
(PID.TID 0000.0001) %MON surfExpan_salt_mean          =   1.9700971823528E-21
(PID.TID 0000.0001) // =======================================================
(PID.TID 0000.0001) // End MONITOR dynamic field statistics
(PID.TID 0000.0001) // =======================================================
(PID.TID 0000.0001) // =======================================================
(PID.TID 0000.0001) // Begin OBCS MONITOR field statistics
(PID.TID 0000.0001) // =======================================================
(PID.TID 0000.0001) %MON obc_S_vVel_max               =   1.2647325248248E-02
(PID.TID 0000.0001) %MON obc_S_vVel_min               =  -3.1766365093121E-05
(PID.TID 0000.0001) %MON obc_S_vVel_mean              =   1.0374635321750E-20
(PID.TID 0000.0001) %MON obc_S_vVel_sd                =   5.6622049028375E-04
(PID.TID 0000.0001) %MON obc_S_vVel_Int               =   1.7616130776332E-11
(PID.TID 0000.0001) // =======================================================
(PID.TID 0000.0001) // End OBCS MONITOR field statistics
(PID.TID 0000.0001) // =======================================================
 EXTERNAL_FIELDS_LOAD,        80 : iP,iLd,i0,i1=    4    5    4    5 ; Wght=  0.5000000000  0.5000000000
 cg2d: Sum(rhs),rhsMax =  -2.72670774847938E-13  3.43292852236960E-03
 EXTERNAL_FIELDS_LOAD,        81 : iP,iLd,i0,i1=    4    5    4    5 ; Wght=  0.4500000000  0.5500000000
 cg2d: Sum(rhs),rhsMax =   4.26325641456060E-14  3.50242165615209E-03
 EXTERNAL_FIELDS_LOAD,        82 : iP,iLd,i0,i1=    4    5    4    5 ; Wght=  0.4000000000  0.6000000000
 cg2d: Sum(rhs),rhsMax =  -5.41788836017076E-14  3.57301314260469E-03
 EXTERNAL_FIELDS_LOAD,        83 : iP,iLd,i0,i1=    4    5    4    5 ; Wght=  0.3500000000  0.6500000000
 cg2d: Sum(rhs),rhsMax =  -4.52970994047064E-14  3.64463663560867E-03
 EXTERNAL_FIELDS_LOAD,        84 : iP,iLd,i0,i1=    4    5    4    5 ; Wght=  0.3000000000  0.7000000000
 cg2d: Sum(rhs),rhsMax =  -1.86517468137026E-14  3.71720370397994E-03
 EXTERNAL_FIELDS_LOAD,        85 : iP,iLd,i0,i1=    4    5    4    5 ; Wght=  0.2500000000  0.7500000000
 cg2d: Sum(rhs),rhsMax =   2.66453525910038E-15  3.79060667105113E-03
 EXTERNAL_FIELDS_LOAD,        86 : iP,iLd,i0,i1=    4    5    4    5 ; Wght=  0.2000000000  0.8000000000
 cg2d: Sum(rhs),rhsMax =   2.12274642308330E-13  3.86472127877348E-03
 EXTERNAL_FIELDS_LOAD,        87 : iP,iLd,i0,i1=    4    5    4    5 ; Wght=  0.1500000000  0.8500000000
 cg2d: Sum(rhs),rhsMax =  -6.03961325396085E-14  3.93940926740393E-03
 EXTERNAL_FIELDS_LOAD,        88 : iP,iLd,i0,i1=    4    5    4    5 ; Wght=  0.1000000000  0.9000000000
 cg2d: Sum(rhs),rhsMax =  -5.50670620214078E-14  4.01452096677405E-03
 EXTERNAL_FIELDS_LOAD,        89 : iP,iLd,i0,i1=    4    5    4    5 ; Wght=  0.0500000000  0.9500000000
 cg2d: Sum(rhs),rhsMax =   7.63833440942108E-14  4.08989798170368E-03
 EXTERNAL_FIELDS_LOAD,        90 : iP,iLd,i0,i1=    4    5    5    6 ; Wght=  1.0000000000  0.0000000000
 EXTERNAL_FIELDS_LOAD, it=        90 : Reading new data, i0,i1=    5    6 (prev=    4    5 )
(PID.TID 0000.0001)  MDS_READ_FIELD: opening global file: ../input/merid_halfgauss2p5hr_272x320.bin
(PID.TID 0000.0001)  MDS_READ_FIELD: opening global file: ../input/merid_halfgauss2p5hr_272x320.bin
 cg2d: Sum(rhs),rhsMax =  -4.61852778244065E-14  4.16537602732914E-03
 EXTERNAL_FIELDS_LOAD,        91 : iP,iLd,i0,i1=    5    6    5    6 ; Wght=  0.9500000000  0.0500000000
 cg2d: Sum(rhs),rhsMax =   2.66453525910038E-15  4.24104127928775E-03
 EXTERNAL_FIELDS_LOAD,        92 : iP,iLd,i0,i1=    5    6    5    6 ; Wght=  0.9000000000  0.1000000000
 cg2d: Sum(rhs),rhsMax =   6.66133814775094E-14  4.31687651654948E-03
 EXTERNAL_FIELDS_LOAD,        93 : iP,iLd,i0,i1=    5    6    5    6 ; Wght=  0.8500000000  0.1500000000
 cg2d: Sum(rhs),rhsMax =  -7.63833440942108E-14  4.39284893264575E-03
 EXTERNAL_FIELDS_LOAD,        94 : iP,iLd,i0,i1=    5    6    5    6 ; Wght=  0.8000000000  0.2000000000
 cg2d: Sum(rhs),rhsMax =  -1.08357767203415E-13  4.46891095334488E-03
 EXTERNAL_FIELDS_LOAD,        95 : iP,iLd,i0,i1=    5    6    5    6 ; Wght=  0.7500000000  0.2500000000
 cg2d: Sum(rhs),rhsMax =  -8.88178419700125E-16  4.54500198105876E-03
 EXTERNAL_FIELDS_LOAD,        96 : iP,iLd,i0,i1=    5    6    5    6 ; Wght=  0.7000000000  0.3000000000
 cg2d: Sum(rhs),rhsMax =  -7.37188088351104E-14  4.62105106751159E-03
 EXTERNAL_FIELDS_LOAD,        97 : iP,iLd,i0,i1=    5    6    5    6 ; Wght=  0.6500000000  0.3500000000
 cg2d: Sum(rhs),rhsMax =  -2.01616501271928E-13  4.69698018768818E-03
 EXTERNAL_FIELDS_LOAD,        98 : iP,iLd,i0,i1=    5    6    5    6 ; Wght=  0.6000000000  0.4000000000
 cg2d: Sum(rhs),rhsMax =   8.34887714518118E-14  4.77270780692164E-03
 EXTERNAL_FIELDS_LOAD,        99 : iP,iLd,i0,i1=    5    6    5    6 ; Wght=  0.5500000000  0.4500000000
 cg2d: Sum(rhs),rhsMax =   5.59552404411079E-14  4.84815245298221E-03
(PID.TID 0000.0001)      cg2d_init_res =   1.18229630296551E-01
(PID.TID 0000.0001)      cg2d_iters(min,last) =      -1      30
(PID.TID 0000.0001)      cg2d_last_res =   6.82421200459418E-08
(PID.TID 0000.0001) // =======================================================
(PID.TID 0000.0001) // Begin MONITOR dynamic field statistics
(PID.TID 0000.0001) // =======================================================
(PID.TID 0000.0001) %MON time_tsnumber                =                   100
(PID.TID 0000.0001) %MON time_secondsf                =   6.0000000000000E+03
(PID.TID 0000.0001) %MON dynstat_eta_max              =   2.3006545889048E-02
(PID.TID 0000.0001) %MON dynstat_eta_min              =  -1.3779685893832E-02
(PID.TID 0000.0001) %MON dynstat_eta_mean             =  -3.6325466209895E-20
(PID.TID 0000.0001) %MON dynstat_eta_sd               =   6.8791199549467E-04
(PID.TID 0000.0001) %MON dynstat_eta_del2             =   6.9219495254672E-07
(PID.TID 0000.0001) %MON dynstat_uvel_max             =   6.0792632295223E-02
(PID.TID 0000.0001) %MON dynstat_uvel_min             =  -3.5906794448195E-02
(PID.TID 0000.0001) %MON dynstat_uvel_mean            =   4.8513270400538E-05
(PID.TID 0000.0001) %MON dynstat_uvel_sd              =   1.8588467032581E-03
(PID.TID 0000.0001) %MON dynstat_uvel_del2            =   2.0383405904260E-07
(PID.TID 0000.0001) %MON dynstat_vvel_max             =   7.7314166007375E-02
(PID.TID 0000.0001) %MON dynstat_vvel_min             =  -1.5718729115718E-02
(PID.TID 0000.0001) %MON dynstat_vvel_mean            =   2.2269675173865E-05
(PID.TID 0000.0001) %MON dynstat_vvel_sd              =   1.0062650790721E-03
(PID.TID 0000.0001) %MON dynstat_vvel_del2            =   1.9231573090198E-07
(PID.TID 0000.0001) %MON dynstat_wvel_max             =   3.1426822998352E-05
(PID.TID 0000.0001) %MON dynstat_wvel_min             =  -5.1698136938600E-05
(PID.TID 0000.0001) %MON dynstat_wvel_mean            =  -4.0966086011695E-08
(PID.TID 0000.0001) %MON dynstat_wvel_sd              =   3.6642211088855E-07
(PID.TID 0000.0001) %MON dynstat_wvel_del2            =   6.8876450918645E-10
(PID.TID 0000.0001) %MON dynstat_theta_max            =   1.6580069237613E+01
(PID.TID 0000.0001) %MON dynstat_theta_min            =   4.2492367268318E+00
(PID.TID 0000.0001) %MON dynstat_theta_mean           =   7.6151882933261E+00
(PID.TID 0000.0001) %MON dynstat_theta_sd             =   3.6062409070635E+00
(PID.TID 0000.0001) %MON dynstat_theta_del2           =   2.1563214227034E-08
(PID.TID 0000.0001) %MON dynstat_salt_max             =   3.4471483059265E+01
(PID.TID 0000.0001) %MON dynstat_salt_min             =   3.3629997854456E+01
(PID.TID 0000.0001) %MON dynstat_salt_mean            =   3.4187264719753E+01
(PID.TID 0000.0001) %MON dynstat_salt_sd              =   2.7103910086567E-01
(PID.TID 0000.0001) %MON dynstat_salt_del2            =   7.8819968829765E-10
(PID.TID 0000.0001) %MON trAdv_CFL_u_max              =   1.7668643582474E-03
(PID.TID 0000.0001) %MON trAdv_CFL_v_max              =   2.2519163554784E-03
(PID.TID 0000.0001) %MON trAdv_CFL_w_max              =   1.6637942186724E-03
(PID.TID 0000.0001) %MON advcfl_uvel_max              =   1.8161511340935E-03
(PID.TID 0000.0001) %MON advcfl_vvel_max              =   2.3085746792289E-03
(PID.TID 0000.0001) %MON advcfl_wvel_max              =   1.4427387052633E-03
(PID.TID 0000.0001) %MON advcfl_W_hf_max              =   1.5509441081580E-03
(PID.TID 0000.0001) %MON pe_b_mean                    =   2.4807776254298E-09
(PID.TID 0000.0001) %MON ke_max                       =   3.5474513033431E-03
(PID.TID 0000.0001) %MON ke_mean                      =   2.2347875223990E-06
(PID.TID 0000.0001) %MON ke_vol                       =   8.2760855027014E+14
(PID.TID 0000.0001) %MON vort_r_min                   =  -4.5785573960828E-05
(PID.TID 0000.0001) %MON vort_r_max                   =   6.8749524089236E-05
(PID.TID 0000.0001) %MON vort_a_mean                  =   6.9582958995909E-04
(PID.TID 0000.0001) %MON vort_a_sd                    =   1.4254300624227E-06
(PID.TID 0000.0001) %MON vort_p_mean                  =   7.0012686801198E-04
(PID.TID 0000.0001) %MON vort_p_sd                    =   9.4509514043951E-05
(PID.TID 0000.0001) %MON surfExpan_theta_mean         =   7.9363104005143E-13
(PID.TID 0000.0001) %MON surfExpan_salt_mean          =  -2.5417955296326E-21
(PID.TID 0000.0001) // =======================================================
(PID.TID 0000.0001) // End MONITOR dynamic field statistics
(PID.TID 0000.0001) // =======================================================
(PID.TID 0000.0001) // =======================================================
(PID.TID 0000.0001) // Begin OBCS MONITOR field statistics
(PID.TID 0000.0001) // =======================================================
(PID.TID 0000.0001) %MON obc_S_vVel_max               =   1.5905273566628E-02
(PID.TID 0000.0001) %MON obc_S_vVel_min               =  -4.1377164735003E-05
(PID.TID 0000.0001) %MON obc_S_vVel_mean              =  -9.6093791215024E-20
(PID.TID 0000.0001) %MON obc_S_vVel_sd                =   7.1211320405512E-04
(PID.TID 0000.0001) %MON obc_S_vVel_Int               =  -1.6316725748311E-10
(PID.TID 0000.0001) // =======================================================
(PID.TID 0000.0001) // End OBCS MONITOR field statistics
(PID.TID 0000.0001) // =======================================================
 EXTERNAL_FIELDS_LOAD,       100 : iP,iLd,i0,i1=    5    6    5    6 ; Wght=  0.5000000000  0.5000000000
 cg2d: Sum(rhs),rhsMax =  -2.45137243837235E-13  4.92323604717241E-03
 EXTERNAL_FIELDS_LOAD,       101 : iP,iLd,i0,i1=    5    6    5    6 ; Wght=  0.4500000000  0.5500000000
 cg2d: Sum(rhs),rhsMax =   1.88293824976427E-13  4.99788680447745E-03
 EXTERNAL_FIELDS_LOAD,       102 : iP,iLd,i0,i1=    5    6    5    6 ; Wght=  0.4000000000  0.6000000000
 cg2d: Sum(rhs),rhsMax =  -1.74971148680925E-13  5.07204157402546E-03
 EXTERNAL_FIELDS_LOAD,       103 : iP,iLd,i0,i1=    5    6    5    6 ; Wght=  0.3500000000  0.6500000000
 cg2d: Sum(rhs),rhsMax =  -3.90798504668055E-14  5.14564755691844E-03
 EXTERNAL_FIELDS_LOAD,       104 : iP,iLd,i0,i1=    5    6    5    6 ; Wght=  0.3000000000  0.7000000000
 cg2d: Sum(rhs),rhsMax =   2.93098878501041E-13  5.21866338295992E-03
 EXTERNAL_FIELDS_LOAD,       105 : iP,iLd,i0,i1=    5    6    5    6 ; Wght=  0.2500000000  0.7500000000
 cg2d: Sum(rhs),rhsMax =  -1.95399252334028E-13  5.29105958623181E-03
 EXTERNAL_FIELDS_LOAD,       106 : iP,iLd,i0,i1=    5    6    5    6 ; Wght=  0.2000000000  0.8000000000
 cg2d: Sum(rhs),rhsMax =  -1.39444011892920E-13  5.36281854447265E-03
 EXTERNAL_FIELDS_LOAD,       107 : iP,iLd,i0,i1=    5    6    5    6 ; Wght=  0.1500000000  0.8500000000
 cg2d: Sum(rhs),rhsMax =  -1.23456800338317E-13  5.43393397183814E-03
 EXTERNAL_FIELDS_LOAD,       108 : iP,iLd,i0,i1=    5    6    5    6 ; Wght=  0.1000000000  0.9000000000
 cg2d: Sum(rhs),rhsMax =   1.69642078162724E-13  5.50441006427422E-03
 EXTERNAL_FIELDS_LOAD,       109 : iP,iLd,i0,i1=    5    6    5    6 ; Wght=  0.0500000000  0.9500000000
 cg2d: Sum(rhs),rhsMax =   2.12274642308330E-13  5.57426039697440E-03
 EXTERNAL_FIELDS_LOAD,       110 : iP,iLd,i0,i1=    5    6    6    7 ; Wght=  1.0000000000  0.0000000000
 EXTERNAL_FIELDS_LOAD, it=       110 : Reading new data, i0,i1=    6    7 (prev=    5    6 )
(PID.TID 0000.0001)  MDS_READ_FIELD: opening global file: ../input/merid_halfgauss2p5hr_272x320.bin
(PID.TID 0000.0001)  MDS_READ_FIELD: opening global file: ../input/merid_halfgauss2p5hr_272x320.bin
 cg2d: Sum(rhs),rhsMax =   1.47437617670221E-13  5.64350666597770E-03
 EXTERNAL_FIELDS_LOAD,       111 : iP,iLd,i0,i1=    6    7    6    7 ; Wght=  0.9500000000  0.0500000000
 cg2d: Sum(rhs),rhsMax =   6.92779167366098E-14  5.71172839730371E-03
 EXTERNAL_FIELDS_LOAD,       112 : iP,iLd,i0,i1=    6    7    6    7 ; Wght=  0.9000000000  0.1000000000
 cg2d: Sum(rhs),rhsMax =  -8.08242361927114E-14  5.77869420977368E-03
 EXTERNAL_FIELDS_LOAD,       113 : iP,iLd,i0,i1=    6    7    6    7 ; Wght=  0.8500000000  0.1500000000
 cg2d: Sum(rhs),rhsMax =  -1.28785870856518E-13  5.84421074893600E-03
 EXTERNAL_FIELDS_LOAD,       114 : iP,iLd,i0,i1=    6    7    6    7 ; Wght=  0.8000000000  0.2000000000
 cg2d: Sum(rhs),rhsMax =  -1.35891298214119E-13  5.90812582484895E-03
 EXTERNAL_FIELDS_LOAD,       115 : iP,iLd,i0,i1=    6    7    6    7 ; Wght=  0.7500000000  0.2500000000
 cg2d: Sum(rhs),rhsMax =  -4.60964599824365E-13  5.97032987181587E-03
 EXTERNAL_FIELDS_LOAD,       116 : iP,iLd,i0,i1=    6    7    6    7 ; Wght=  0.7000000000  0.3000000000
 cg2d: Sum(rhs),rhsMax =   1.27009514017118E-13  6.03075553026213E-03
 EXTERNAL_FIELDS_LOAD,       117 : iP,iLd,i0,i1=    6    7    6    7 ; Wght=  0.6500000000  0.3500000000
 cg2d: Sum(rhs),rhsMax =  -6.66133814775094E-14  6.08937573781305E-03
 EXTERNAL_FIELDS_LOAD,       118 : iP,iLd,i0,i1=    6    7    6    7 ; Wght=  0.6000000000  0.4000000000
 cg2d: Sum(rhs),rhsMax =  -5.59552404411079E-14  6.14620069553138E-03
 EXTERNAL_FIELDS_LOAD,       119 : iP,iLd,i0,i1=    6    7    6    7 ; Wght=  0.5500000000  0.4500000000
 cg2d: Sum(rhs),rhsMax =   1.67865721323324E-13  6.20127406801676E-03
(PID.TID 0000.0001)      cg2d_init_res =   9.32790858438285E-02
(PID.TID 0000.0001)      cg2d_iters(min,last) =      -1      29
(PID.TID 0000.0001)      cg2d_last_res =   8.06827862436281E-08
(PID.TID 0000.0001) // =======================================================
(PID.TID 0000.0001) // Begin MONITOR dynamic field statistics
(PID.TID 0000.0001) // =======================================================
(PID.TID 0000.0001) %MON time_tsnumber                =                   120
(PID.TID 0000.0001) %MON time_secondsf                =   7.2000000000000E+03
(PID.TID 0000.0001) %MON dynstat_eta_max              =   3.5198385716774E-02
(PID.TID 0000.0001) %MON dynstat_eta_min              =  -2.2484596188112E-02
(PID.TID 0000.0001) %MON dynstat_eta_mean             =  -1.0213247021333E-19
(PID.TID 0000.0001) %MON dynstat_eta_sd               =   1.0045139112663E-03
(PID.TID 0000.0001) %MON dynstat_eta_del2             =   9.8777292285137E-07
(PID.TID 0000.0001) %MON dynstat_uvel_max             =   1.0026870322435E-01
(PID.TID 0000.0001) %MON dynstat_uvel_min             =  -6.0481489450585E-02
(PID.TID 0000.0001) %MON dynstat_uvel_mean            =   6.7474017270721E-05
(PID.TID 0000.0001) %MON dynstat_uvel_sd              =   2.7351450249500E-03
(PID.TID 0000.0001) %MON dynstat_uvel_del2            =   3.2986036017583E-07
(PID.TID 0000.0001) %MON dynstat_vvel_max             =   1.2051728142120E-01
(PID.TID 0000.0001) %MON dynstat_vvel_min             =  -2.1901166582166E-02
(PID.TID 0000.0001) %MON dynstat_vvel_mean            =   2.3840252943802E-05
(PID.TID 0000.0001) %MON dynstat_vvel_sd              =   1.0812598425533E-03
(PID.TID 0000.0001) %MON dynstat_vvel_del2            =   3.0307439876180E-07
(PID.TID 0000.0001) %MON dynstat_wvel_max             =   5.8378300710544E-05
(PID.TID 0000.0001) %MON dynstat_wvel_min             =  -8.3566219276204E-05
(PID.TID 0000.0001) %MON dynstat_wvel_mean            =  -4.6248112637245E-08
(PID.TID 0000.0001) %MON dynstat_wvel_sd              =   4.3558880352314E-07
(PID.TID 0000.0001) %MON dynstat_wvel_del2            =   9.5739600418577E-10
(PID.TID 0000.0001) %MON dynstat_theta_max            =   1.6580220828732E+01
(PID.TID 0000.0001) %MON dynstat_theta_min            =   4.2492345678823E+00
(PID.TID 0000.0001) %MON dynstat_theta_mean           =   7.6151891714561E+00
(PID.TID 0000.0001) %MON dynstat_theta_sd             =   3.6062405255091E+00
(PID.TID 0000.0001) %MON dynstat_theta_del2           =   3.2821841719154E-08
(PID.TID 0000.0001) %MON dynstat_salt_max             =   3.4471483302084E+01
(PID.TID 0000.0001) %MON dynstat_salt_min             =   3.3629995999773E+01
(PID.TID 0000.0001) %MON dynstat_salt_mean            =   3.4187264663687E+01
(PID.TID 0000.0001) %MON dynstat_salt_sd              =   2.7103908105476E-01
(PID.TID 0000.0001) %MON dynstat_salt_del2            =   1.1636594424057E-09
(PID.TID 0000.0001) %MON trAdv_CFL_u_max              =   2.9282674125535E-03
(PID.TID 0000.0001) %MON trAdv_CFL_v_max              =   3.5282725331314E-03
(PID.TID 0000.0001) %MON trAdv_CFL_w_max              =   2.6454111492860E-03
(PID.TID 0000.0001) %MON advcfl_uvel_max              =   2.9954800803928E-03
(PID.TID 0000.0001) %MON advcfl_vvel_max              =   3.5986049991400E-03
(PID.TID 0000.0001) %MON advcfl_wvel_max              =   2.3320805379406E-03
(PID.TID 0000.0001) %MON advcfl_W_hf_max              =   2.5069865782861E-03
(PID.TID 0000.0001) %MON pe_b_mean                    =   5.2897358110670E-09
(PID.TID 0000.0001) %MON ke_max                       =   8.8634178537511E-03
(PID.TID 0000.0001) %MON ke_mean                      =   4.3268321059607E-06
(PID.TID 0000.0001) %MON ke_vol                       =   8.2760855027014E+14
(PID.TID 0000.0001) %MON vort_r_min                   =  -7.2039204044716E-05
(PID.TID 0000.0001) %MON vort_r_max                   =   1.0990643538294E-04
(PID.TID 0000.0001) %MON vort_a_mean                  =   6.9582958995909E-04
(PID.TID 0000.0001) %MON vort_a_sd                    =   1.4280369355647E-06
(PID.TID 0000.0001) %MON vort_p_mean                  =   7.0012686801198E-04
(PID.TID 0000.0001) %MON vort_p_sd                    =   9.4506125265553E-05
(PID.TID 0000.0001) %MON surfExpan_theta_mean         =   1.0518039618200E-12
(PID.TID 0000.0001) %MON surfExpan_salt_mean          =   2.2703416381184E-21
(PID.TID 0000.0001) // =======================================================
(PID.TID 0000.0001) // End MONITOR dynamic field statistics
(PID.TID 0000.0001) // =======================================================
(PID.TID 0000.0001) // =======================================================
(PID.TID 0000.0001) // Begin OBCS MONITOR field statistics
(PID.TID 0000.0001) // =======================================================
(PID.TID 0000.0001) %MON obc_S_vVel_max               =   1.8147854804891E-02
(PID.TID 0000.0001) %MON obc_S_vVel_min               =  -4.6192183725389E-05
(PID.TID 0000.0001) %MON obc_S_vVel_mean              =   6.4300351458714E-20
(PID.TID 0000.0001) %MON obc_S_vVel_sd                =   8.1249445529564E-04
(PID.TID 0000.0001) %MON obc_S_vVel_Int               =   1.0918199677690E-10
(PID.TID 0000.0001) // =======================================================
(PID.TID 0000.0001) // End OBCS MONITOR field statistics
(PID.TID 0000.0001) // =======================================================
 EXTERNAL_FIELDS_LOAD,       120 : iP,iLd,i0,i1=    6    7    6    7 ; Wght=  0.5000000000  0.5000000000
 cg2d: Sum(rhs),rhsMax =  -1.90070181815827E-13  6.25466874090745E-03
 EXTERNAL_FIELDS_LOAD,       121 : iP,iLd,i0,i1=    6    7    6    7 ; Wght=  0.4500000000  0.5500000000
 cg2d: Sum(rhs),rhsMax =   5.95079541199084E-14  6.30648240600000E-03
 EXTERNAL_FIELDS_LOAD,       122 : iP,iLd,i0,i1=    6    7    6    7 ; Wght=  0.4000000000  0.6000000000
 cg2d: Sum(rhs),rhsMax =  -3.46389583683049E-14  6.35683318204975E-03
 EXTERNAL_FIELDS_LOAD,       123 : iP,iLd,i0,i1=    6    7    6    7 ; Wght=  0.3500000000  0.6500000000
 cg2d: Sum(rhs),rhsMax =   8.70414851306123E-14  6.40585541623044E-03
 EXTERNAL_FIELDS_LOAD,       124 : iP,iLd,i0,i1=    6    7    6    7 ; Wght=  0.3000000000  0.7000000000
 cg2d: Sum(rhs),rhsMax =   3.55271367880050E-15  6.45369587920307E-03
 EXTERNAL_FIELDS_LOAD,       125 : iP,iLd,i0,i1=    6    7    6    7 ; Wght=  0.2500000000  0.7500000000
 cg2d: Sum(rhs),rhsMax =   4.14779321999958E-13  6.50051192255071E-03
 EXTERNAL_FIELDS_LOAD,       126 : iP,iLd,i0,i1=    6    7    6    7 ; Wght=  0.2000000000  0.8000000000
 cg2d: Sum(rhs),rhsMax =   3.23296944770846E-13  6.54646294528709E-03
 EXTERNAL_FIELDS_LOAD,       127 : iP,iLd,i0,i1=    6    7    6    7 ; Wght=  0.1500000000  0.8500000000
 cg2d: Sum(rhs),rhsMax =  -1.15463194561016E-13  6.59171217394733E-03
 EXTERNAL_FIELDS_LOAD,       128 : iP,iLd,i0,i1=    6    7    6    7 ; Wght=  0.1000000000  0.9000000000
 cg2d: Sum(rhs),rhsMax =   8.97060203897126E-14  6.63642242660923E-03
 EXTERNAL_FIELDS_LOAD,       129 : iP,iLd,i0,i1=    6    7    6    7 ; Wght=  0.0500000000  0.9500000000
 cg2d: Sum(rhs),rhsMax =  -2.12274642308330E-13  6.68075355665035E-03
 EXTERNAL_FIELDS_LOAD,       130 : iP,iLd,i0,i1=    6    7    7    8 ; Wght=  1.0000000000  0.0000000000
 EXTERNAL_FIELDS_LOAD, it=       130 : Reading new data, i0,i1=    7    8 (prev=    6    7 )
(PID.TID 0000.0001)  MDS_READ_FIELD: opening global file: ../input/merid_halfgauss2p5hr_272x320.bin
(PID.TID 0000.0001)  MDS_READ_FIELD: opening global file: ../input/merid_halfgauss2p5hr_272x320.bin
 cg2d: Sum(rhs),rhsMax =  -1.52766688188422E-13  6.72486008319818E-03
 EXTERNAL_FIELDS_LOAD,       131 : iP,iLd,i0,i1=    7    8    7    8 ; Wght=  0.9500000000  0.0500000000
 cg2d: Sum(rhs),rhsMax =  -5.41788836017076E-14  6.76769042641340E-03
 EXTERNAL_FIELDS_LOAD,       132 : iP,iLd,i0,i1=    7    8    7    8 ; Wght=  0.9000000000  0.1000000000
 cg2d: Sum(rhs),rhsMax =  -1.22568621918617E-13  6.80867376877005E-03
 EXTERNAL_FIELDS_LOAD,       133 : iP,iLd,i0,i1=    7    8    7    8 ; Wght=  0.8500000000  0.1500000000
 cg2d: Sum(rhs),rhsMax =  -1.82964754458226E-13  6.84731843169959E-03
 EXTERNAL_FIELDS_LOAD,       134 : iP,iLd,i0,i1=    7    8    7    8 ; Wght=  0.8000000000  0.2000000000
 cg2d: Sum(rhs),rhsMax =   4.44089209850063E-15  6.88322192420628E-03
 EXTERNAL_FIELDS_LOAD,       135 : iP,iLd,i0,i1=    7    8    7    8 ; Wght=  0.7500000000  0.2500000000
 cg2d: Sum(rhs),rhsMax =   1.03028696685215E-13  6.91607650237013E-03
 EXTERNAL_FIELDS_LOAD,       136 : iP,iLd,i0,i1=    7    8    7    8 ; Wght=  0.7000000000  0.3000000000
 cg2d: Sum(rhs),rhsMax =   3.27737836869346E-13  6.94566971687664E-03
 EXTERNAL_FIELDS_LOAD,       137 : iP,iLd,i0,i1=    7    8    7    8 ; Wght=  0.6500000000  0.3500000000
 cg2d: Sum(rhs),rhsMax =   1.68753899743024E-13  6.97188100530003E-03
 EXTERNAL_FIELDS_LOAD,       138 : iP,iLd,i0,i1=    7    8    7    8 ; Wght=  0.6000000000  0.4000000000
 cg2d: Sum(rhs),rhsMax =  -2.44249065417534E-13  6.99467534370911E-03
 EXTERNAL_FIELDS_LOAD,       139 : iP,iLd,i0,i1=    7    8    7    8 ; Wght=  0.5500000000  0.4500000000
 cg2d: Sum(rhs),rhsMax =  -3.34843264226947E-13  7.01409494575903E-03
(PID.TID 0000.0001)      cg2d_init_res =   6.37410153054009E-02
(PID.TID 0000.0001)      cg2d_iters(min,last) =      -1      28
(PID.TID 0000.0001)      cg2d_last_res =   8.23561180946211E-08
(PID.TID 0000.0001) // =======================================================
(PID.TID 0000.0001) // Begin MONITOR dynamic field statistics
(PID.TID 0000.0001) // =======================================================
(PID.TID 0000.0001) %MON time_tsnumber                =                   140
(PID.TID 0000.0001) %MON time_secondsf                =   8.4000000000000E+03
(PID.TID 0000.0001) %MON dynstat_eta_max              =   4.8222733719442E-02
(PID.TID 0000.0001) %MON dynstat_eta_min              =  -3.3412906689112E-02
(PID.TID 0000.0001) %MON dynstat_eta_mean             =  -1.5898972167229E-19
(PID.TID 0000.0001) %MON dynstat_eta_sd               =   1.3404155712777E-03
(PID.TID 0000.0001) %MON dynstat_eta_del2             =   1.2952994348197E-06
(PID.TID 0000.0001) %MON dynstat_uvel_max             =   1.5043389100461E-01
(PID.TID 0000.0001) %MON dynstat_uvel_min             =  -9.2610066532526E-02
(PID.TID 0000.0001) %MON dynstat_uvel_mean            =   8.5084239186677E-05
(PID.TID 0000.0001) %MON dynstat_uvel_sd              =   3.5669577739361E-03
(PID.TID 0000.0001) %MON dynstat_uvel_del2            =   4.8434723224200E-07
(PID.TID 0000.0001) %MON dynstat_vvel_max             =   1.7017281934739E-01
(PID.TID 0000.0001) %MON dynstat_vvel_min             =  -2.7043178543273E-02
(PID.TID 0000.0001) %MON dynstat_vvel_mean            =   1.8952403124607E-05
(PID.TID 0000.0001) %MON dynstat_vvel_sd              =   8.9669908217660E-04
(PID.TID 0000.0001) %MON dynstat_vvel_del2            =   4.4125282901159E-07
(PID.TID 0000.0001) %MON dynstat_wvel_max             =   9.6676140062736E-05
(PID.TID 0000.0001) %MON dynstat_wvel_min             =  -1.2262839750003E-04
(PID.TID 0000.0001) %MON dynstat_wvel_mean            =  -4.5983355065613E-08
(PID.TID 0000.0001) %MON dynstat_wvel_sd              =   4.5699838971369E-07
(PID.TID 0000.0001) %MON dynstat_wvel_del2            =   1.2141962558625E-09
(PID.TID 0000.0001) %MON dynstat_theta_max            =   1.6580451221320E+01
(PID.TID 0000.0001) %MON dynstat_theta_min            =   4.2492287955717E+00
(PID.TID 0000.0001) %MON dynstat_theta_mean           =   7.6151901086557E+00
(PID.TID 0000.0001) %MON dynstat_theta_sd             =   3.6062402168026E+00
(PID.TID 0000.0001) %MON dynstat_theta_del2           =   4.3587813253910E-08
(PID.TID 0000.0001) %MON dynstat_salt_max             =   3.4471483951304E+01
(PID.TID 0000.0001) %MON dynstat_salt_min             =   3.3629993941502E+01
(PID.TID 0000.0001) %MON dynstat_salt_mean            =   3.4187264604349E+01
(PID.TID 0000.0001) %MON dynstat_salt_sd              =   2.7103906432935E-01
(PID.TID 0000.0001) %MON dynstat_salt_del2            =   1.5009415383340E-09
(PID.TID 0000.0001) %MON trAdv_CFL_u_max              =   4.4130406982437E-03
(PID.TID 0000.0001) %MON trAdv_CFL_v_max              =   5.0058798165484E-03
(PID.TID 0000.0001) %MON trAdv_CFL_w_max              =   3.8142120029205E-03
(PID.TID 0000.0001) %MON advcfl_uvel_max              =   4.4941413365249E-03
(PID.TID 0000.0001) %MON advcfl_vvel_max              =   5.0813024588649E-03
(PID.TID 0000.0001) %MON advcfl_wvel_max              =   3.4221878372102E-03
(PID.TID 0000.0001) %MON advcfl_W_hf_max              =   3.6788519250010E-03
(PID.TID 0000.0001) %MON pe_b_mean                    =   9.4189176476300E-09
(PID.TID 0000.0001) %MON ke_max                       =   1.8304482088728E-02
(PID.TID 0000.0001) %MON ke_mean                      =   6.7664259503895E-06
(PID.TID 0000.0001) %MON ke_vol                       =   8.2760855027014E+14
(PID.TID 0000.0001) %MON vort_r_min                   =  -1.0360318340887E-04
(PID.TID 0000.0001) %MON vort_r_max                   =   1.5959562102787E-04
(PID.TID 0000.0001) %MON vort_a_mean                  =   6.9582958995909E-04
(PID.TID 0000.0001) %MON vort_a_sd                    =   1.4321594226506E-06
(PID.TID 0000.0001) %MON vort_p_mean                  =   7.0012686801198E-04
(PID.TID 0000.0001) %MON vort_p_sd                    =   9.4502469722691E-05
(PID.TID 0000.0001) %MON surfExpan_theta_mean         =   9.6746591809109E-13
(PID.TID 0000.0001) %MON surfExpan_salt_mean          =  -1.4888834655777E-21
(PID.TID 0000.0001) // =======================================================
(PID.TID 0000.0001) // End MONITOR dynamic field statistics
(PID.TID 0000.0001) // =======================================================
(PID.TID 0000.0001) // =======================================================
(PID.TID 0000.0001) // Begin OBCS MONITOR field statistics
(PID.TID 0000.0001) // =======================================================
(PID.TID 0000.0001) %MON obc_S_vVel_max               =   1.9681394920641E-02
(PID.TID 0000.0001) %MON obc_S_vVel_min               =  -4.5029972441573E-05
(PID.TID 0000.0001) %MON obc_S_vVel_mean              =  -3.3101122941969E-20
(PID.TID 0000.0001) %MON obc_S_vVel_sd                =   8.8105553617637E-04
(PID.TID 0000.0001) %MON obc_S_vVel_Int               =  -5.6205706755463E-11
(PID.TID 0000.0001) // =======================================================
(PID.TID 0000.0001) // End OBCS MONITOR field statistics
(PID.TID 0000.0001) // =======================================================
 EXTERNAL_FIELDS_LOAD,       140 : iP,iLd,i0,i1=    7    8    7    8 ; Wght=  0.5000000000  0.5000000000
 cg2d: Sum(rhs),rhsMax =  -1.79412040779425E-13  7.03024989232029E-03
 EXTERNAL_FIELDS_LOAD,       141 : iP,iLd,i0,i1=    7    8    7    8 ; Wght=  0.4500000000  0.5500000000
 cg2d: Sum(rhs),rhsMax =  -2.07833750209829E-13  7.04330841617381E-03
 EXTERNAL_FIELDS_LOAD,       142 : iP,iLd,i0,i1=    7    8    7    8 ; Wght=  0.4000000000  0.6000000000
 cg2d: Sum(rhs),rhsMax =  -3.62376795237651E-13  7.05348738276767E-03
 EXTERNAL_FIELDS_LOAD,       143 : iP,iLd,i0,i1=    7    8    7    8 ; Wght=  0.3500000000  0.6500000000
 cg2d: Sum(rhs),rhsMax =  -3.81916720471054E-14  7.06104332319924E-03
 EXTERNAL_FIELDS_LOAD,       144 : iP,iLd,i0,i1=    7    8    7    8 ; Wght=  0.3000000000  0.7000000000
 cg2d: Sum(rhs),rhsMax =   2.77111666946439E-13  7.06626420779475E-03
 EXTERNAL_FIELDS_LOAD,       145 : iP,iLd,i0,i1=    7    8    7    8 ; Wght=  0.2500000000  0.7500000000
 cg2d: Sum(rhs),rhsMax =  -3.07309733216243E-13  7.06946201045385E-03
 EXTERNAL_FIELDS_LOAD,       146 : iP,iLd,i0,i1=    7    8    7    8 ; Wght=  0.2000000000  0.8000000000
 cg2d: Sum(rhs),rhsMax =   2.62012633811537E-13  7.07096601222906E-03
 EXTERNAL_FIELDS_LOAD,       147 : iP,iLd,i0,i1=    7    8    7    8 ; Wght=  0.1500000000  0.8500000000
 cg2d: Sum(rhs),rhsMax =  -2.68229882749438E-13  7.07111672929929E-03
 EXTERNAL_FIELDS_LOAD,       148 : iP,iLd,i0,i1=    7    8    7    8 ; Wght=  0.1000000000  0.9000000000
 cg2d: Sum(rhs),rhsMax =  -9.76996261670138E-15  7.07026032329355E-03
 EXTERNAL_FIELDS_LOAD,       149 : iP,iLd,i0,i1=    7    8    7    8 ; Wght=  0.0500000000  0.9500000000
 cg2d: Sum(rhs),rhsMax =   1.60760293965723E-13  7.06874335544199E-03
 EXTERNAL_FIELDS_LOAD,       150 : iP,iLd,i0,i1=    7    8    8    9 ; Wght=  1.0000000000  0.0000000000
 EXTERNAL_FIELDS_LOAD, it=       150 : Reading new data, i0,i1=    8    9 (prev=    7    8 )
(PID.TID 0000.0001)  MDS_READ_FIELD: opening global file: ../input/merid_halfgauss2p5hr_272x320.bin
(PID.TID 0000.0001)  MDS_READ_FIELD: opening global file: ../input/merid_halfgauss2p5hr_272x320.bin
 cg2d: Sum(rhs),rhsMax =  -3.93463039927155E-13  7.06690777311996E-03
 EXTERNAL_FIELDS_LOAD,       151 : iP,iLd,i0,i1=    8    9    8    9 ; Wght=  0.9500000000  0.0500000000
 cg2d: Sum(rhs),rhsMax =  -8.97060203897126E-14  7.04859434937299E-03
 EXTERNAL_FIELDS_LOAD,       152 : iP,iLd,i0,i1=    8    9    8    9 ; Wght=  0.9000000000  0.1000000000
 cg2d: Sum(rhs),rhsMax =   5.32907051820075E-14  7.00438183140747E-03
 EXTERNAL_FIELDS_LOAD,       153 : iP,iLd,i0,i1=    8    9    8    9 ; Wght=  0.8500000000  0.1500000000
 cg2d: Sum(rhs),rhsMax =   4.08562073062058E-14  6.92607870097381E-03
 EXTERNAL_FIELDS_LOAD,       154 : iP,iLd,i0,i1=    8    9    8    9 ; Wght=  0.8000000000  0.2000000000
 cg2d: Sum(rhs),rhsMax =   4.79616346638068E-14  6.80688059547483E-03
 EXTERNAL_FIELDS_LOAD,       155 : iP,iLd,i0,i1=    8    9    8    9 ; Wght=  0.7500000000  0.2500000000
 cg2d: Sum(rhs),rhsMax =   7.63833440942108E-14  6.64146260339862E-03
 EXTERNAL_FIELDS_LOAD,       156 : iP,iLd,i0,i1=    8    9    8    9 ; Wght=  0.7000000000  0.3000000000
 cg2d: Sum(rhs),rhsMax =  -1.38555833473220E-13  6.42599930033927E-03
 EXTERNAL_FIELDS_LOAD,       157 : iP,iLd,i0,i1=    8    9    8    9 ; Wght=  0.6500000000  0.3500000000
 cg2d: Sum(rhs),rhsMax =   3.21520587931445E-13  6.15812680740256E-03
 EXTERNAL_FIELDS_LOAD,       158 : iP,iLd,i0,i1=    8    9    8    9 ; Wght=  0.6000000000  0.4000000000
 cg2d: Sum(rhs),rhsMax =   8.34887714518118E-14  5.83686049517483E-03
 EXTERNAL_FIELDS_LOAD,       159 : iP,iLd,i0,i1=    8    9    8    9 ; Wght=  0.5500000000  0.4500000000
 cg2d: Sum(rhs),rhsMax =  -1.59872115546023E-13  5.46248172789774E-03
(PID.TID 0000.0001)      cg2d_init_res =   2.73937673233265E-01
(PID.TID 0000.0001)      cg2d_iters(min,last) =      -1      30
(PID.TID 0000.0001)      cg2d_last_res =   7.34912200275485E-08
(PID.TID 0000.0001) // =======================================================
(PID.TID 0000.0001) // Begin MONITOR dynamic field statistics
(PID.TID 0000.0001) // =======================================================
(PID.TID 0000.0001) %MON time_tsnumber                =                   160
(PID.TID 0000.0001) %MON time_secondsf                =   9.6000000000000E+03
(PID.TID 0000.0001) %MON dynstat_eta_max              =   5.8360190778420E-02
(PID.TID 0000.0001) %MON dynstat_eta_min              =  -4.5800809313484E-02
(PID.TID 0000.0001) %MON dynstat_eta_mean             =  -2.2848191789992E-19
(PID.TID 0000.0001) %MON dynstat_eta_sd               =   1.5975414864771E-03
(PID.TID 0000.0001) %MON dynstat_eta_del2             =   1.4816262792833E-06
(PID.TID 0000.0001) %MON dynstat_uvel_max             =   2.0548826739017E-01
(PID.TID 0000.0001) %MON dynstat_uvel_min             =  -1.3069570402468E-01
(PID.TID 0000.0001) %MON dynstat_uvel_mean            =   9.2818811100538E-05
(PID.TID 0000.0001) %MON dynstat_uvel_sd              =   4.0535350652910E-03
(PID.TID 0000.0001) %MON dynstat_uvel_del2            =   6.5028398779844E-07
(PID.TID 0000.0001) %MON dynstat_vvel_max             =   2.1334845007337E-01
(PID.TID 0000.0001) %MON dynstat_vvel_min             =  -3.2001521450943E-02
(PID.TID 0000.0001) %MON dynstat_vvel_mean            =  -8.6260434247569E-06
(PID.TID 0000.0001) %MON dynstat_vvel_sd              =   1.8624185422088E-04
(PID.TID 0000.0001) %MON dynstat_vvel_del2            =   6.1023956356393E-07
(PID.TID 0000.0001) %MON dynstat_wvel_max             =   1.4487983127255E-04
(PID.TID 0000.0001) %MON dynstat_wvel_min             =  -1.6334473724380E-04
(PID.TID 0000.0001) %MON dynstat_wvel_mean            =  -3.1143053268430E-08
(PID.TID 0000.0001) %MON dynstat_wvel_sd              =   6.0371519000514E-07
(PID.TID 0000.0001) %MON dynstat_wvel_del2            =   1.7283596737308E-09
(PID.TID 0000.0001) %MON dynstat_theta_max            =   1.6580755256049E+01
(PID.TID 0000.0001) %MON dynstat_theta_min            =   4.2492180746988E+00
(PID.TID 0000.0001) %MON dynstat_theta_mean           =   7.6151909738005E+00
(PID.TID 0000.0001) %MON dynstat_theta_sd             =   3.6062398766219E+00
(PID.TID 0000.0001) %MON dynstat_theta_del2           =   5.1741476716037E-08
(PID.TID 0000.0001) %MON dynstat_salt_max             =   3.4471485157102E+01
(PID.TID 0000.0001) %MON dynstat_salt_min             =   3.3629992194444E+01
(PID.TID 0000.0001) %MON dynstat_salt_mean            =   3.4187264550973E+01
(PID.TID 0000.0001) %MON dynstat_salt_sd              =   2.7103904500358E-01
(PID.TID 0000.0001) %MON dynstat_salt_del2            =   1.7952918377905E-09
(PID.TID 0000.0001) %MON trAdv_CFL_u_max              =   6.0674418596894E-03
(PID.TID 0000.0001) %MON trAdv_CFL_v_max              =   6.3337523082205E-03
(PID.TID 0000.0001) %MON trAdv_CFL_w_max              =   4.9735652552166E-03
(PID.TID 0000.0001) %MON advcfl_uvel_max              =   6.1388647895887E-03
(PID.TID 0000.0001) %MON advcfl_vvel_max              =   6.3705120953529E-03
(PID.TID 0000.0001) %MON advcfl_wvel_max              =   4.5584577835479E-03
(PID.TID 0000.0001) %MON advcfl_W_hf_max              =   4.9003421173140E-03
(PID.TID 0000.0001) %MON pe_b_mean                    =   1.3379083415711E-08
(PID.TID 0000.0001) %MON ke_max                       =   3.0271181512343E-02
(PID.TID 0000.0001) %MON ke_mean                      =   8.2364173509509E-06
(PID.TID 0000.0001) %MON ke_vol                       =   8.2760855027014E+14
(PID.TID 0000.0001) %MON vort_r_min                   =  -1.3423751148261E-04
(PID.TID 0000.0001) %MON vort_r_max                   =   2.0773411825087E-04
(PID.TID 0000.0001) %MON vort_a_mean                  =   6.9582958995909E-04
(PID.TID 0000.0001) %MON vort_a_sd                    =   1.4370497325875E-06
(PID.TID 0000.0001) %MON vort_p_mean                  =   7.0012686801198E-04
(PID.TID 0000.0001) %MON vort_p_sd                    =   9.4499309127883E-05
(PID.TID 0000.0001) %MON surfExpan_theta_mean         =  -4.6701504483085E-12
(PID.TID 0000.0001) %MON surfExpan_salt_mean          =  -8.5137811429442E-22
(PID.TID 0000.0001) // =======================================================
(PID.TID 0000.0001) // End MONITOR dynamic field statistics
(PID.TID 0000.0001) // =======================================================
(PID.TID 0000.0001) // =======================================================
(PID.TID 0000.0001) // Begin OBCS MONITOR field statistics
(PID.TID 0000.0001) // =======================================================
(PID.TID 0000.0001) %MON obc_S_vVel_max               =   1.6803695959951E-02
(PID.TID 0000.0001) %MON obc_S_vVel_min               =  -8.8775740766135E-05
(PID.TID 0000.0001) %MON obc_S_vVel_mean              =  -3.5849349924952E-20
(PID.TID 0000.0001) %MON obc_S_vVel_sd                =   7.5226938877493E-04
(PID.TID 0000.0001) %MON obc_S_vVel_Int               =  -6.0872196172568E-11
(PID.TID 0000.0001) // =======================================================
(PID.TID 0000.0001) // End OBCS MONITOR field statistics
(PID.TID 0000.0001) // =======================================================
 EXTERNAL_FIELDS_LOAD,       160 : iP,iLd,i0,i1=    8    9    8    9 ; Wght=  0.5000000000  0.5000000000
 cg2d: Sum(rhs),rhsMax =  -3.58824081558851E-13  5.03640569214969E-03
 EXTERNAL_FIELDS_LOAD,       161 : iP,iLd,i0,i1=    8    9    8    9 ; Wght=  0.4500000000  0.5500000000
 cg2d: Sum(rhs),rhsMax =  -1.75859327100625E-13  4.56104031331201E-03
 EXTERNAL_FIELDS_LOAD,       162 : iP,iLd,i0,i1=    8    9    8    9 ; Wght=  0.4000000000  0.6000000000
 cg2d: Sum(rhs),rhsMax =  -1.56319401867222E-13  4.03964387069137E-03
 EXTERNAL_FIELDS_LOAD,       163 : iP,iLd,i0,i1=    8    9    8    9 ; Wght=  0.3500000000  0.6500000000
 cg2d: Sum(rhs),rhsMax =  -8.10018718766514E-13  3.47618651647271E-03
 EXTERNAL_FIELDS_LOAD,       164 : iP,iLd,i0,i1=    8    9    8    9 ; Wght=  0.3000000000  0.7000000000
 cg2d: Sum(rhs),rhsMax =   7.67386154620908E-13  2.87521871720671E-03
 EXTERNAL_FIELDS_LOAD,       165 : iP,iLd,i0,i1=    8    9    8    9 ; Wght=  0.2500000000  0.7500000000
 cg2d: Sum(rhs),rhsMax =   2.73558953267639E-13  2.24174783620079E-03
 EXTERNAL_FIELDS_LOAD,       166 : iP,iLd,i0,i1=    8    9    8    9 ; Wght=  0.2000000000  0.8000000000
 cg2d: Sum(rhs),rhsMax =   8.34887714518118E-13  1.97956770346823E-03
 EXTERNAL_FIELDS_LOAD,       167 : iP,iLd,i0,i1=    8    9    8    9 ; Wght=  0.1500000000  0.8500000000
 cg2d: Sum(rhs),rhsMax =   1.59161572810262E-12  1.96615538477308E-03
 EXTERNAL_FIELDS_LOAD,       168 : iP,iLd,i0,i1=    8    9    8    9 ; Wght=  0.1000000000  0.9000000000
 cg2d: Sum(rhs),rhsMax =   5.61328761250479E-13  1.95047804903796E-03
 EXTERNAL_FIELDS_LOAD,       169 : iP,iLd,i0,i1=    8    9    8    9 ; Wght=  0.0500000000  0.9500000000
 cg2d: Sum(rhs),rhsMax =  -3.83693077310454E-13  1.93254138989425E-03
 EXTERNAL_FIELDS_LOAD,       170 : iP,iLd,i0,i1=    8    9    9   10 ; Wght=  1.0000000000  0.0000000000
 EXTERNAL_FIELDS_LOAD, it=       170 : Reading new data, i0,i1=    9   10 (prev=    8    9 )
(PID.TID 0000.0001)  MDS_READ_FIELD: opening global file: ../input/merid_halfgauss2p5hr_272x320.bin
(PID.TID 0000.0001)  MDS_READ_FIELD: opening global file: ../input/merid_halfgauss2p5hr_272x320.bin
 cg2d: Sum(rhs),rhsMax =  -4.61852778244065E-14  1.91234295581763E-03
 EXTERNAL_FIELDS_LOAD,       171 : iP,iLd,i0,i1=    9   10    9   10 ; Wght=  0.9500000000  0.0500000000
 cg2d: Sum(rhs),rhsMax =  -4.19220214098459E-13  1.98513223341875E-03
 EXTERNAL_FIELDS_LOAD,       172 : iP,iLd,i0,i1=    9   10    9   10 ; Wght=  0.9000000000  0.1000000000
 cg2d: Sum(rhs),rhsMax =   1.77635683940025E-13  2.65604843128347E-03
 EXTERNAL_FIELDS_LOAD,       173 : iP,iLd,i0,i1=    9   10    9   10 ; Wght=  0.8500000000  0.1500000000
 cg2d: Sum(rhs),rhsMax =   2.94875235340442E-13  3.28415627846058E-03
 EXTERNAL_FIELDS_LOAD,       174 : iP,iLd,i0,i1=    9   10    9   10 ; Wght=  0.8000000000  0.2000000000
 cg2d: Sum(rhs),rhsMax =  -1.49213974509621E-13  3.85846532254072E-03
 EXTERNAL_FIELDS_LOAD,       175 : iP,iLd,i0,i1=    9   10    9   10 ; Wght=  0.7500000000  0.2500000000
 cg2d: Sum(rhs),rhsMax =   2.45137243837235E-13  4.36984027542812E-03
 EXTERNAL_FIELDS_LOAD,       176 : iP,iLd,i0,i1=    9   10    9   10 ; Wght=  0.7000000000  0.3000000000
 cg2d: Sum(rhs),rhsMax =  -1.27897692436818E-13  4.81108256967655E-03
 EXTERNAL_FIELDS_LOAD,       177 : iP,iLd,i0,i1=    9   10    9   10 ; Wght=  0.6500000000  0.3500000000
 cg2d: Sum(rhs),rhsMax =  -1.90070181815827E-13  5.17694753592207E-03
 EXTERNAL_FIELDS_LOAD,       178 : iP,iLd,i0,i1=    9   10    9   10 ; Wght=  0.6000000000  0.4000000000
 cg2d: Sum(rhs),rhsMax =  -6.92779167366098E-14  5.46410808416008E-03
 EXTERNAL_FIELDS_LOAD,       179 : iP,iLd,i0,i1=    9   10    9   10 ; Wght=  0.5500000000  0.4500000000
 cg2d: Sum(rhs),rhsMax =  -2.48689957516035E-14  5.67107589889399E-03
(PID.TID 0000.0001)      cg2d_init_res =   5.03849879485214E-01
(PID.TID 0000.0001)      cg2d_iters(min,last) =      -1      34
(PID.TID 0000.0001)      cg2d_last_res =   6.55941100077267E-08
(PID.TID 0000.0001) // =======================================================
(PID.TID 0000.0001) // Begin MONITOR dynamic field statistics
(PID.TID 0000.0001) // =======================================================
(PID.TID 0000.0001) %MON time_tsnumber                =                   180
(PID.TID 0000.0001) %MON time_secondsf                =   1.0800000000000E+04
(PID.TID 0000.0001) %MON dynstat_eta_max              =   4.8729233069982E-02
(PID.TID 0000.0001) %MON dynstat_eta_min              =  -6.0286566773761E-02
(PID.TID 0000.0001) %MON dynstat_eta_mean             =  -1.2634944768659E-19
(PID.TID 0000.0001) %MON dynstat_eta_sd               =   1.5075010736595E-03
(PID.TID 0000.0001) %MON dynstat_eta_del2             =   1.4562377066338E-06
(PID.TID 0000.0001) %MON dynstat_uvel_max             =   2.3813539544202E-01
(PID.TID 0000.0001) %MON dynstat_uvel_min             =  -1.5389762224255E-01
(PID.TID 0000.0001) %MON dynstat_uvel_mean            =   4.5785411813025E-05
(PID.TID 0000.0001) %MON dynstat_uvel_sd              =   2.9521218840113E-03
(PID.TID 0000.0001) %MON dynstat_uvel_del2            =   7.4831159527687E-07
(PID.TID 0000.0001) %MON dynstat_vvel_max             =   2.1901715304288E-01
(PID.TID 0000.0001) %MON dynstat_vvel_min             =  -6.1895791513064E-02
(PID.TID 0000.0001) %MON dynstat_vvel_mean            =  -9.6380113904467E-05
(PID.TID 0000.0001) %MON dynstat_vvel_sd              =   2.7253721128156E-03
(PID.TID 0000.0001) %MON dynstat_vvel_del2            =   7.6936209223650E-07
(PID.TID 0000.0001) %MON dynstat_wvel_max             =   2.0939873831718E-04
(PID.TID 0000.0001) %MON dynstat_wvel_min             =  -1.7913209347272E-04
(PID.TID 0000.0001) %MON dynstat_wvel_mean            =   9.8477290133870E-08
(PID.TID 0000.0001) %MON dynstat_wvel_sd              =   8.9766506052976E-07
(PID.TID 0000.0001) %MON dynstat_wvel_del2            =   2.1367422653278E-09
(PID.TID 0000.0001) %MON dynstat_theta_max            =   1.6581090361418E+01
(PID.TID 0000.0001) %MON dynstat_theta_min            =   4.2492002102635E+00
(PID.TID 0000.0001) %MON dynstat_theta_mean           =   7.6151904676585E+00
(PID.TID 0000.0001) %MON dynstat_theta_sd             =   3.6062381269732E+00
(PID.TID 0000.0001) %MON dynstat_theta_del2           =   6.6367881282756E-08
(PID.TID 0000.0001) %MON dynstat_salt_max             =   3.4471487166370E+01
(PID.TID 0000.0001) %MON dynstat_salt_min             =   3.3629991993768E+01
(PID.TID 0000.0001) %MON dynstat_salt_mean            =   3.4187264583082E+01
(PID.TID 0000.0001) %MON dynstat_salt_sd              =   2.7103895980315E-01
(PID.TID 0000.0001) %MON dynstat_salt_del2            =   2.4334594778797E-09
(PID.TID 0000.0001) %MON trAdv_CFL_u_max              =   7.0706525272292E-03
(PID.TID 0000.0001) %MON trAdv_CFL_v_max              =   6.5478180801052E-03
(PID.TID 0000.0001) %MON trAdv_CFL_w_max              =   5.3824855626879E-03
(PID.TID 0000.0001) %MON advcfl_uvel_max              =   7.1140051913273E-03
(PID.TID 0000.0001) %MON advcfl_vvel_max              =   6.5397776363953E-03
(PID.TID 0000.0001) %MON advcfl_wvel_max              =   5.8436857204795E-03
(PID.TID 0000.0001) %MON advcfl_W_hf_max              =   6.2819621495155E-03
(PID.TID 0000.0001) %MON pe_b_mean                    =   1.1913444101383E-08
(PID.TID 0000.0001) %MON ke_max                       =   3.9210669089160E-02
(PID.TID 0000.0001) %MON ke_mean                      =   8.0726987686926E-06
(PID.TID 0000.0001) %MON ke_vol                       =   8.2760855027014E+14
(PID.TID 0000.0001) %MON vort_r_min                   =  -1.4100571079783E-04
(PID.TID 0000.0001) %MON vort_r_max                   =   2.2755854680093E-04
(PID.TID 0000.0001) %MON vort_a_mean                  =   6.9582958995909E-04
(PID.TID 0000.0001) %MON vort_a_sd                    =   1.4371129583141E-06
(PID.TID 0000.0001) %MON vort_p_mean                  =   7.0012686801198E-04
(PID.TID 0000.0001) %MON vort_p_sd                    =   9.4498821421665E-05
(PID.TID 0000.0001) %MON surfExpan_theta_mean         =  -6.4190145731038E-12
(PID.TID 0000.0001) %MON surfExpan_salt_mean          =  -3.0764774371605E-21
(PID.TID 0000.0001) // =======================================================
(PID.TID 0000.0001) // End MONITOR dynamic field statistics
(PID.TID 0000.0001) // =======================================================
(PID.TID 0000.0001) // =======================================================
(PID.TID 0000.0001) // Begin OBCS MONITOR field statistics
(PID.TID 0000.0001) // =======================================================
(PID.TID 0000.0001) %MON obc_S_vVel_max               =   1.5147886745970E-04
(PID.TID 0000.0001) %MON obc_S_vVel_min               =  -4.5061395373799E-02
(PID.TID 0000.0001) %MON obc_S_vVel_mean              =   6.1672431328812E-20
(PID.TID 0000.0001) %MON obc_S_vVel_sd                =   2.0172712422606E-03
(PID.TID 0000.0001) %MON obc_S_vVel_Int               =   1.0471978839632E-10
(PID.TID 0000.0001) // =======================================================
(PID.TID 0000.0001) // End OBCS MONITOR field statistics
(PID.TID 0000.0001) // =======================================================
 EXTERNAL_FIELDS_LOAD,       180 : iP,iLd,i0,i1=    9   10    9   10 ; Wght=  0.5000000000  0.5000000000
 cg2d: Sum(rhs),rhsMax =  -2.66453525910038E-14  5.79809038797810E-03
 EXTERNAL_FIELDS_LOAD,       181 : iP,iLd,i0,i1=    9   10    9   10 ; Wght=  0.4500000000  0.5500000000
 cg2d: Sum(rhs),rhsMax =  -1.41220368732320E-13  5.84698427083110E-03
 EXTERNAL_FIELDS_LOAD,       182 : iP,iLd,i0,i1=    9   10    9   10 ; Wght=  0.4000000000  0.6000000000
 cg2d: Sum(rhs),rhsMax =  -1.34114941374719E-13  5.82103304901374E-03
 EXTERNAL_FIELDS_LOAD,       183 : iP,iLd,i0,i1=    9   10    9   10 ; Wght=  0.3500000000  0.6500000000
 cg2d: Sum(rhs),rhsMax =   1.47437617670221E-13  5.72479391712659E-03
 EXTERNAL_FIELDS_LOAD,       184 : iP,iLd,i0,i1=    9   10    9   10 ; Wght=  0.3000000000  0.7000000000
 cg2d: Sum(rhs),rhsMax =  -5.32907051820075E-15  5.56393813169134E-03
 EXTERNAL_FIELDS_LOAD,       185 : iP,iLd,i0,i1=    9   10    9   10 ; Wght=  0.2500000000  0.7500000000
 cg2d: Sum(rhs),rhsMax =  -2.57571741713036E-14  5.34507958775897E-03
 EXTERNAL_FIELDS_LOAD,       186 : iP,iLd,i0,i1=    9   10    9   10 ; Wght=  0.2000000000  0.8000000000
 cg2d: Sum(rhs),rhsMax =   1.86517468137026E-14  5.07560142448787E-03
 EXTERNAL_FIELDS_LOAD,       187 : iP,iLd,i0,i1=    9   10    9   10 ; Wght=  0.1500000000  0.8500000000
 cg2d: Sum(rhs),rhsMax =  -1.50990331349021E-13  4.76348190782301E-03
 EXTERNAL_FIELDS_LOAD,       188 : iP,iLd,i0,i1=    9   10    9   10 ; Wght=  0.1000000000  0.9000000000
 cg2d: Sum(rhs),rhsMax =  -4.79616346638068E-14  4.41712059626985E-03
 EXTERNAL_FIELDS_LOAD,       189 : iP,iLd,i0,i1=    9   10    9   10 ; Wght=  0.0500000000  0.9500000000
 cg2d: Sum(rhs),rhsMax =  -9.76996261670138E-14  4.04516582766147E-03
 EXTERNAL_FIELDS_LOAD,       190 : iP,iLd,i0,i1=    9   10   10   11 ; Wght=  1.0000000000  0.0000000000
 EXTERNAL_FIELDS_LOAD, it=       190 : Reading new data, i0,i1=   10   11 (prev=    9   10 )
(PID.TID 0000.0001)  MDS_READ_FIELD: opening global file: ../input/merid_halfgauss2p5hr_272x320.bin
(PID.TID 0000.0001)  MDS_READ_FIELD: opening global file: ../input/merid_halfgauss2p5hr_272x320.bin
 cg2d: Sum(rhs),rhsMax =  -1.59872115546023E-14  3.65634479459577E-03
 EXTERNAL_FIELDS_LOAD,       191 : iP,iLd,i0,i1=   10   11   10   11 ; Wght=  0.9500000000  0.0500000000
 cg2d: Sum(rhs),rhsMax =  -2.73558953267639E-13  3.25929781911170E-03
 EXTERNAL_FIELDS_LOAD,       192 : iP,iLd,i0,i1=   10   11   10   11 ; Wght=  0.9000000000  0.1000000000
 cg2d: Sum(rhs),rhsMax =   5.86197757002083E-14  2.86241880955682E-03
 EXTERNAL_FIELDS_LOAD,       193 : iP,iLd,i0,i1=   10   11   10   11 ; Wght=  0.8500000000  0.1500000000
 cg2d: Sum(rhs),rhsMax =   8.88178419700125E-15  2.49263888498417E-03
 EXTERNAL_FIELDS_LOAD,       194 : iP,iLd,i0,i1=   10   11   10   11 ; Wght=  0.8000000000  0.2000000000
 cg2d: Sum(rhs),rhsMax =   2.22044604925031E-13  2.18060081805245E-03
 EXTERNAL_FIELDS_LOAD,       195 : iP,iLd,i0,i1=   10   11   10   11 ; Wght=  0.7500000000  0.2500000000
 cg2d: Sum(rhs),rhsMax =  -1.40332190312620E-13  1.90712845404911E-03
 EXTERNAL_FIELDS_LOAD,       196 : iP,iLd,i0,i1=   10   11   10   11 ; Wght=  0.7000000000  0.3000000000
 cg2d: Sum(rhs),rhsMax =   2.20268248085631E-13  1.79384311879460E-03
 EXTERNAL_FIELDS_LOAD,       197 : iP,iLd,i0,i1=   10   11   10   11 ; Wght=  0.6500000000  0.3500000000
 cg2d: Sum(rhs),rhsMax =  -1.24344978758018E-13  1.76704621217069E-03
 EXTERNAL_FIELDS_LOAD,       198 : iP,iLd,i0,i1=   10   11   10   11 ; Wght=  0.6000000000  0.4000000000
 cg2d: Sum(rhs),rhsMax =  -5.00932628710871E-13  1.74123197584091E-03
 EXTERNAL_FIELDS_LOAD,       199 : iP,iLd,i0,i1=   10   11   10   11 ; Wght=  0.5500000000  0.4500000000
 cg2d: Sum(rhs),rhsMax =   4.76063632959267E-13  1.71667074631056E-03
(PID.TID 0000.0001)      cg2d_init_res =   1.68656397273565E+00
(PID.TID 0000.0001)      cg2d_iters(min,last) =      -1      34
(PID.TID 0000.0001)      cg2d_last_res =   7.63561134692258E-08
(PID.TID 0000.0001) // =======================================================
(PID.TID 0000.0001) // Begin MONITOR dynamic field statistics
(PID.TID 0000.0001) // =======================================================
(PID.TID 0000.0001) %MON time_tsnumber                =                   200
(PID.TID 0000.0001) %MON time_secondsf                =   1.2000000000000E+04
(PID.TID 0000.0001) %MON dynstat_eta_max              =   3.0858784453096E-02
(PID.TID 0000.0001) %MON dynstat_eta_min              =  -4.9520587295872E-02
(PID.TID 0000.0001) %MON dynstat_eta_mean             =   5.8963075587076E-20
(PID.TID 0000.0001) %MON dynstat_eta_sd               =   1.1848169868298E-03
(PID.TID 0000.0001) %MON dynstat_eta_del2             =   1.1325852291180E-06
(PID.TID 0000.0001) %MON dynstat_uvel_max             =   2.5888275434146E-01
(PID.TID 0000.0001) %MON dynstat_uvel_min             =  -1.5745714323702E-01
(PID.TID 0000.0001) %MON dynstat_uvel_mean            =  -3.8555693055056E-05
(PID.TID 0000.0001) %MON dynstat_uvel_sd              =   2.0859488405215E-04
(PID.TID 0000.0001) %MON dynstat_uvel_del2            =   8.2331631846010E-07
(PID.TID 0000.0001) %MON dynstat_vvel_max             =   2.3293267857671E-01
(PID.TID 0000.0001) %MON dynstat_vvel_min             =  -9.1363045184380E-02
(PID.TID 0000.0001) %MON dynstat_vvel_mean            =  -8.2802347105625E-05
(PID.TID 0000.0001) %MON dynstat_vvel_sd              =   4.0036251051203E-03
(PID.TID 0000.0001) %MON dynstat_vvel_del2            =   9.0852916093813E-07
(PID.TID 0000.0001) %MON dynstat_wvel_max             =   2.5711007428768E-04
(PID.TID 0000.0001) %MON dynstat_wvel_min             =  -1.5478283444528E-04
(PID.TID 0000.0001) %MON dynstat_wvel_mean            =   1.7379408771177E-07
(PID.TID 0000.0001) %MON dynstat_wvel_sd              =   1.6440930274646E-06
(PID.TID 0000.0001) %MON dynstat_wvel_del2            =   2.4890207846044E-09
(PID.TID 0000.0001) %MON dynstat_theta_max            =   1.6581380861807E+01
(PID.TID 0000.0001) %MON dynstat_theta_min            =   4.2491679138352E+00
(PID.TID 0000.0001) %MON dynstat_theta_mean           =   7.6151874543051E+00
(PID.TID 0000.0001) %MON dynstat_theta_sd             =   3.6062336592704E+00
(PID.TID 0000.0001) %MON dynstat_theta_del2           =   8.4768430734245E-08
(PID.TID 0000.0001) %MON dynstat_salt_max             =   3.4471490798909E+01
(PID.TID 0000.0001) %MON dynstat_salt_min             =   3.3629988204806E+01
(PID.TID 0000.0001) %MON dynstat_salt_mean            =   3.4187264767663E+01
(PID.TID 0000.0001) %MON dynstat_salt_sd              =   2.7103875066412E-01
(PID.TID 0000.0001) %MON dynstat_salt_del2            =   2.9684766828116E-09
(PID.TID 0000.0001) %MON trAdv_CFL_u_max              =   7.7180053391708E-03
(PID.TID 0000.0001) %MON trAdv_CFL_v_max              =   8.1634812531525E-03
(PID.TID 0000.0001) %MON trAdv_CFL_w_max              =   6.6893015047840E-03
(PID.TID 0000.0001) %MON advcfl_uvel_max              =   7.7338072944249E-03
(PID.TID 0000.0001) %MON advcfl_vvel_max              =   6.9552904919889E-03
(PID.TID 0000.0001) %MON advcfl_wvel_max              =   7.1751648638423E-03
(PID.TID 0000.0001) %MON advcfl_W_hf_max              =   7.7133022286304E-03
(PID.TID 0000.0001) %MON pe_b_mean                    =   7.3590984903314E-09
(PID.TID 0000.0001) %MON ke_max                       =   4.4826628343088E-02
(PID.TID 0000.0001) %MON ke_mean                      =   8.0235986297881E-06
(PID.TID 0000.0001) %MON ke_vol                       =   8.2760855027014E+14
(PID.TID 0000.0001) %MON vort_r_min                   =  -1.4036786628707E-04
(PID.TID 0000.0001) %MON vort_r_max                   =   2.4481218793693E-04
(PID.TID 0000.0001) %MON vort_a_mean                  =   6.9582958995909E-04
(PID.TID 0000.0001) %MON vort_a_sd                    =   1.4319354350253E-06
(PID.TID 0000.0001) %MON vort_p_mean                  =   7.0012686801198E-04
(PID.TID 0000.0001) %MON vort_p_sd                    =   9.4509134446056E-05
(PID.TID 0000.0001) %MON surfExpan_theta_mean         =  -2.0971048879296E-12
(PID.TID 0000.0001) %MON surfExpan_salt_mean          =   8.9826560464686E-21
(PID.TID 0000.0001) // =======================================================
(PID.TID 0000.0001) // End MONITOR dynamic field statistics
(PID.TID 0000.0001) // =======================================================
(PID.TID 0000.0001) // =======================================================
(PID.TID 0000.0001) // Begin OBCS MONITOR field statistics
(PID.TID 0000.0001) // =======================================================
(PID.TID 0000.0001) %MON obc_S_vVel_max               =   3.5420607540943E-04
(PID.TID 0000.0001) %MON obc_S_vVel_min               =  -9.0268537227362E-02
(PID.TID 0000.0001) %MON obc_S_vVel_mean              =  -7.2832722708507E-20
(PID.TID 0000.0001) %MON obc_S_vVel_sd                =   4.0415345743711E-03
(PID.TID 0000.0001) %MON obc_S_vVel_Int               =  -1.2366996315905E-10
(PID.TID 0000.0001) // =======================================================
(PID.TID 0000.0001) // End OBCS MONITOR field statistics
(PID.TID 0000.0001) // =======================================================
 EXTERNAL_FIELDS_LOAD,       200 : iP,iLd,i0,i1=   10   11   10   11 ; Wght=  0.5000000000  0.5000000000
 cg2d: Sum(rhs),rhsMax =   3.01980662698043E-13  1.69360627658712E-03
 EXTERNAL_FIELDS_LOAD,       201 : iP,iLd,i0,i1=   10   11   10   11 ; Wght=  0.4500000000  0.5500000000
 cg2d: Sum(rhs),rhsMax =   4.19220214098459E-13  1.67225236695718E-03
 EXTERNAL_FIELDS_LOAD,       202 : iP,iLd,i0,i1=   10   11   10   11 ; Wght=  0.4000000000  0.6000000000
 cg2d: Sum(rhs),rhsMax =   5.54223333892878E-13  1.65278979301222E-03
 EXTERNAL_FIELDS_LOAD,       203 : iP,iLd,i0,i1=   10   11   10   11 ; Wght=  0.3500000000  0.6500000000
 cg2d: Sum(rhs),rhsMax =   1.59872115546023E-13  1.63536359526569E-03
 EXTERNAL_FIELDS_LOAD,       204 : iP,iLd,i0,i1=   10   11   10   11 ; Wght=  0.3000000000  0.7000000000
 cg2d: Sum(rhs),rhsMax =  -1.68753899743024E-13  1.62008080116275E-03
 EXTERNAL_FIELDS_LOAD,       205 : iP,iLd,i0,i1=   10   11   10   11 ; Wght=  0.2500000000  0.7500000000
 cg2d: Sum(rhs),rhsMax =  -2.77111666946439E-13  1.60700865260766E-03
 EXTERNAL_FIELDS_LOAD,       206 : iP,iLd,i0,i1=   10   11   10   11 ; Wght=  0.2000000000  0.8000000000
 cg2d: Sum(rhs),rhsMax =   3.80140363631654E-13  1.59617341115221E-03
 EXTERNAL_FIELDS_LOAD,       207 : iP,iLd,i0,i1=   10   11   10   11 ; Wght=  0.1500000000  0.8500000000
 cg2d: Sum(rhs),rhsMax =   1.26831878333178E-12  1.58755980694647E-03
 EXTERNAL_FIELDS_LOAD,       208 : iP,iLd,i0,i1=   10   11   10   11 ; Wght=  0.1000000000  0.9000000000
 cg2d: Sum(rhs),rhsMax =   1.63424829224823E-13  1.58185333119295E-03
 EXTERNAL_FIELDS_LOAD,       209 : iP,iLd,i0,i1=   10   11   10   11 ; Wght=  0.0500000000  0.9500000000
 cg2d: Sum(rhs),rhsMax =   9.62785406954936E-13  1.58413451783484E-03
 EXTERNAL_FIELDS_LOAD,       210 : iP,iLd,i0,i1=   10   11   11   12 ; Wght=  1.0000000000  0.0000000000
 EXTERNAL_FIELDS_LOAD, it=       210 : Reading new data, i0,i1=   11   12 (prev=   10   11 )
(PID.TID 0000.0001)  MDS_READ_FIELD: opening global file: ../input/merid_halfgauss2p5hr_272x320.bin
(PID.TID 0000.0001)  MDS_READ_FIELD: opening global file: ../input/merid_halfgauss2p5hr_272x320.bin
 cg2d: Sum(rhs),rhsMax =   3.33955085807247E-13  1.58780368826184E-03
 EXTERNAL_FIELDS_LOAD,       211 : iP,iLd,i0,i1=   11   12   11   12 ; Wght=  0.9500000000  0.0500000000
 cg2d: Sum(rhs),rhsMax =   1.56319401867222E-13  1.60252597358157E-03
 EXTERNAL_FIELDS_LOAD,       212 : iP,iLd,i0,i1=   11   12   11   12 ; Wght=  0.9000000000  0.1000000000
 cg2d: Sum(rhs),rhsMax =   5.95079541199084E-13  1.74143082051611E-03
 EXTERNAL_FIELDS_LOAD,       213 : iP,iLd,i0,i1=   11   12   11   12 ; Wght=  0.8500000000  0.1500000000
 cg2d: Sum(rhs),rhsMax =   7.01660951563099E-13  1.90219038691950E-03
 EXTERNAL_FIELDS_LOAD,       214 : iP,iLd,i0,i1=   11   12   11   12 ; Wght=  0.8000000000  0.2000000000
 cg2d: Sum(rhs),rhsMax =   2.20268248085631E-13  2.06321246994229E-03
 EXTERNAL_FIELDS_LOAD,       215 : iP,iLd,i0,i1=   11   12   11   12 ; Wght=  0.7500000000  0.2500000000
 cg2d: Sum(rhs),rhsMax =   5.57776047571679E-13  2.22854621006501E-03
 EXTERNAL_FIELDS_LOAD,       216 : iP,iLd,i0,i1=   11   12   11   12 ; Wght=  0.7000000000  0.3000000000
 cg2d: Sum(rhs),rhsMax =   2.18491891246231E-13  2.38375270481616E-03
 EXTERNAL_FIELDS_LOAD,       217 : iP,iLd,i0,i1=   11   12   11   12 ; Wght=  0.6500000000  0.3500000000
 cg2d: Sum(rhs),rhsMax =   2.80664380625240E-13  2.52551017729270E-03
 EXTERNAL_FIELDS_LOAD,       218 : iP,iLd,i0,i1=   11   12   11   12 ; Wght=  0.6000000000  0.4000000000
 cg2d: Sum(rhs),rhsMax =  -3.19744231092045E-14  2.65788011888859E-03
 EXTERNAL_FIELDS_LOAD,       219 : iP,iLd,i0,i1=   11   12   11   12 ; Wght=  0.5500000000  0.4500000000
 cg2d: Sum(rhs),rhsMax =  -9.76996261670138E-14  2.77256085363471E-03
(PID.TID 0000.0001)      cg2d_init_res =   5.28310208740537E-01
(PID.TID 0000.0001)      cg2d_iters(min,last) =      -1      33
(PID.TID 0000.0001)      cg2d_last_res =   6.97555265260457E-08
(PID.TID 0000.0001) // =======================================================
(PID.TID 0000.0001) // Begin MONITOR dynamic field statistics
(PID.TID 0000.0001) // =======================================================
(PID.TID 0000.0001) %MON time_tsnumber                =                   220
(PID.TID 0000.0001) %MON time_secondsf                =   1.3200000000000E+04
(PID.TID 0000.0001) %MON dynstat_eta_max              =   2.3612654114158E-02
(PID.TID 0000.0001) %MON dynstat_eta_min              =  -4.6185404150315E-02
(PID.TID 0000.0001) %MON dynstat_eta_mean             =  -2.1584697313126E-19
(PID.TID 0000.0001) %MON dynstat_eta_sd               =   1.1258179735078E-03
(PID.TID 0000.0001) %MON dynstat_eta_del2             =   9.4547645238697E-07
(PID.TID 0000.0001) %MON dynstat_uvel_max             =   2.5743079148544E-01
(PID.TID 0000.0001) %MON dynstat_uvel_min             =  -1.5414857008496E-01
(PID.TID 0000.0001) %MON dynstat_uvel_mean            =  -7.2632180301150E-05
(PID.TID 0000.0001) %MON dynstat_uvel_sd              =   2.9864037879800E-03
(PID.TID 0000.0001) %MON dynstat_uvel_del2            =   9.6040280455591E-07
(PID.TID 0000.0001) %MON dynstat_vvel_max             =   2.1231941633863E-01
(PID.TID 0000.0001) %MON dynstat_vvel_min             =  -9.6640882901197E-02
(PID.TID 0000.0001) %MON dynstat_vvel_mean            =   7.5563834586148E-06
(PID.TID 0000.0001) %MON dynstat_vvel_sd              =   2.6525242329981E-03
(PID.TID 0000.0001) %MON dynstat_vvel_del2            =   9.5200574936620E-07
(PID.TID 0000.0001) %MON dynstat_wvel_max             =   2.5104287553296E-04
(PID.TID 0000.0001) %MON dynstat_wvel_min             =  -1.2415763276647E-04
(PID.TID 0000.0001) %MON dynstat_wvel_mean            =   1.3372176463434E-07
(PID.TID 0000.0001) %MON dynstat_wvel_sd              =   1.1772216336450E-06
(PID.TID 0000.0001) %MON dynstat_wvel_del2            =   2.5396029209235E-09
(PID.TID 0000.0001) %MON dynstat_theta_max            =   1.6581543784769E+01
(PID.TID 0000.0001) %MON dynstat_theta_min            =   4.2491323005567E+00
(PID.TID 0000.0001) %MON dynstat_theta_mean           =   7.6151841047220E+00
(PID.TID 0000.0001) %MON dynstat_theta_sd             =   3.6062288080447E+00
(PID.TID 0000.0001) %MON dynstat_theta_del2           =   1.0645455418947E-07
(PID.TID 0000.0001) %MON dynstat_salt_max             =   3.4471494804601E+01
(PID.TID 0000.0001) %MON dynstat_salt_min             =   3.3629985964690E+01
(PID.TID 0000.0001) %MON dynstat_salt_mean            =   3.4187264972085E+01
(PID.TID 0000.0001) %MON dynstat_salt_sd              =   2.7103852495934E-01
(PID.TID 0000.0001) %MON dynstat_salt_del2            =   3.7350565326674E-09
(PID.TID 0000.0001) %MON trAdv_CFL_u_max              =   7.7026205497319E-03
(PID.TID 0000.0001) %MON trAdv_CFL_v_max              =   8.4301213958884E-03
(PID.TID 0000.0001) %MON trAdv_CFL_w_max              =   6.5658231719911E-03
(PID.TID 0000.0001) %MON advcfl_uvel_max              =   7.6904316707541E-03
(PID.TID 0000.0001) %MON advcfl_vvel_max              =   6.3397854983169E-03
(PID.TID 0000.0001) %MON advcfl_wvel_max              =   7.0058476892918E-03
(PID.TID 0000.0001) %MON advcfl_W_hf_max              =   7.5312862659887E-03
(PID.TID 0000.0001) %MON pe_b_mean                    =   6.6444406544352E-09
(PID.TID 0000.0001) %MON ke_max                       =   4.2086071154556E-02
(PID.TID 0000.0001) %MON ke_mean                      =   7.9693193879293E-06
(PID.TID 0000.0001) %MON ke_vol                       =   8.2760855027014E+14
(PID.TID 0000.0001) %MON vort_r_min                   =  -1.3287009123050E-04
(PID.TID 0000.0001) %MON vort_r_max                   =   2.3382633385139E-04
(PID.TID 0000.0001) %MON vort_a_mean                  =   6.9582958995909E-04
(PID.TID 0000.0001) %MON vort_a_sd                    =   1.4342363559260E-06
(PID.TID 0000.0001) %MON vort_p_mean                  =   7.0012686801198E-04
(PID.TID 0000.0001) %MON vort_p_sd                    =   9.4521767407862E-05
(PID.TID 0000.0001) %MON surfExpan_theta_mean         =  -3.9489639618983E-13
(PID.TID 0000.0001) %MON surfExpan_salt_mean          =  -2.5500214051330E-22
(PID.TID 0000.0001) // =======================================================
(PID.TID 0000.0001) // End MONITOR dynamic field statistics
(PID.TID 0000.0001) // =======================================================
(PID.TID 0000.0001) // =======================================================
(PID.TID 0000.0001) // Begin OBCS MONITOR field statistics
(PID.TID 0000.0001) // =======================================================
(PID.TID 0000.0001) %MON obc_S_vVel_max               =   3.3628744401937E-04
(PID.TID 0000.0001) %MON obc_S_vVel_min               =  -7.1119271599447E-02
(PID.TID 0000.0001) %MON obc_S_vVel_mean              =  -7.6213868353349E-20
(PID.TID 0000.0001) %MON obc_S_vVel_sd                =   3.1844387485734E-03
(PID.TID 0000.0001) %MON obc_S_vVel_Int               =  -1.2941114846399E-10
(PID.TID 0000.0001) // =======================================================
(PID.TID 0000.0001) // End OBCS MONITOR field statistics
(PID.TID 0000.0001) // =======================================================
 EXTERNAL_FIELDS_LOAD,       220 : iP,iLd,i0,i1=   11   12   11   12 ; Wght=  0.5000000000  0.5000000000
 cg2d: Sum(rhs),rhsMax =  -3.03757019537443E-13  2.86500076716217E-03
 EXTERNAL_FIELDS_LOAD,       221 : iP,iLd,i0,i1=   11   12   11   12 ; Wght=  0.4500000000  0.5500000000
 cg2d: Sum(rhs),rhsMax =   1.63424829224823E-13  2.93361334471273E-03
 EXTERNAL_FIELDS_LOAD,       222 : iP,iLd,i0,i1=   11   12   11   12 ; Wght=  0.4000000000  0.6000000000
 cg2d: Sum(rhs),rhsMax =  -4.38760139331862E-13  2.97735909525967E-03
 EXTERNAL_FIELDS_LOAD,       223 : iP,iLd,i0,i1=   11   12   11   12 ; Wght=  0.3500000000  0.6500000000
 cg2d: Sum(rhs),rhsMax =  -2.30926389122033E-13  2.99574252241596E-03
 EXTERNAL_FIELDS_LOAD,       224 : iP,iLd,i0,i1=   11   12   11   12 ; Wght=  0.3000000000  0.7000000000
 cg2d: Sum(rhs),rhsMax =  -7.63833440942108E-14  2.98879777015277E-03
 EXTERNAL_FIELDS_LOAD,       225 : iP,iLd,i0,i1=   11   12   11   12 ; Wght=  0.2500000000  0.7500000000
 cg2d: Sum(rhs),rhsMax =   1.70530256582424E-13  2.95706369098686E-03
 EXTERNAL_FIELDS_LOAD,       226 : iP,iLd,i0,i1=   11   12   11   12 ; Wght=  0.2000000000  0.8000000000
 cg2d: Sum(rhs),rhsMax =   5.47117906535277E-13  2.90154927434236E-03
 EXTERNAL_FIELDS_LOAD,       227 : iP,iLd,i0,i1=   11   12   11   12 ; Wght=  0.1500000000  0.8500000000
 cg2d: Sum(rhs),rhsMax =   4.52970994047064E-13  2.82369054114440E-03
 EXTERNAL_FIELDS_LOAD,       228 : iP,iLd,i0,i1=   11   12   11   12 ; Wght=  0.1000000000  0.9000000000
 cg2d: Sum(rhs),rhsMax =  -3.39284156325448E-13  2.72530015421623E-03
 EXTERNAL_FIELDS_LOAD,       229 : iP,iLd,i0,i1=   11   12   11   12 ; Wght=  0.0500000000  0.9500000000
 cg2d: Sum(rhs),rhsMax =   2.45137243837235E-13  2.60851110996194E-03
 EXTERNAL_FIELDS_LOAD,       230 : iP,iLd,i0,i1=   11   12   12   13 ; Wght=  1.0000000000  0.0000000000
 EXTERNAL_FIELDS_LOAD, it=       230 : Reading new data, i0,i1=   12   13 (prev=   11   12 )
(PID.TID 0000.0001)  MDS_READ_FIELD: opening global file: ../input/merid_halfgauss2p5hr_272x320.bin
(PID.TID 0000.0001)  MDS_READ_FIELD: opening global file: ../input/merid_halfgauss2p5hr_272x320.bin
 cg2d: Sum(rhs),rhsMax =  -1.77635683940025E-14  2.47571596263611E-03
 EXTERNAL_FIELDS_LOAD,       231 : iP,iLd,i0,i1=   12   13   12   13 ; Wght=  0.9500000000  0.0500000000
 cg2d: Sum(rhs),rhsMax =   1.81188397618826E-13  2.33493877081128E-03
 EXTERNAL_FIELDS_LOAD,       232 : iP,iLd,i0,i1=   12   13   12   13 ; Wght=  0.9000000000  0.1000000000
 cg2d: Sum(rhs),rhsMax =  -7.28306304154103E-13  2.18740438004847E-03
 EXTERNAL_FIELDS_LOAD,       233 : iP,iLd,i0,i1=   12   13   12   13 ; Wght=  0.8500000000  0.1500000000
 cg2d: Sum(rhs),rhsMax =  -1.24344978758018E-13  2.03241525815894E-03
 EXTERNAL_FIELDS_LOAD,       234 : iP,iLd,i0,i1=   12   13   12   13 ; Wght=  0.8000000000  0.2000000000
 cg2d: Sum(rhs),rhsMax =  -3.80140363631654E-13  1.98239338666831E-03
 EXTERNAL_FIELDS_LOAD,       235 : iP,iLd,i0,i1=   12   13   12   13 ; Wght=  0.7500000000  0.2500000000
 cg2d: Sum(rhs),rhsMax =  -4.15667500419659E-13  1.95476211471799E-03
 EXTERNAL_FIELDS_LOAD,       236 : iP,iLd,i0,i1=   12   13   12   13 ; Wght=  0.7000000000  0.3000000000
 cg2d: Sum(rhs),rhsMax =   2.13162820728030E-14  1.92247273150198E-03
 EXTERNAL_FIELDS_LOAD,       237 : iP,iLd,i0,i1=   12   13   12   13 ; Wght=  0.6500000000  0.3500000000
 cg2d: Sum(rhs),rhsMax =  -4.26325641456060E-14  1.88577729377915E-03
 EXTERNAL_FIELDS_LOAD,       238 : iP,iLd,i0,i1=   12   13   12   13 ; Wght=  0.6000000000  0.4000000000
 cg2d: Sum(rhs),rhsMax =   6.75015598972095E-14  1.84497236598868E-03
 EXTERNAL_FIELDS_LOAD,       239 : iP,iLd,i0,i1=   12   13   12   13 ; Wght=  0.5500000000  0.4500000000
 cg2d: Sum(rhs),rhsMax =   1.06581410364015E-14  1.80039428860682E-03
(PID.TID 0000.0001)      cg2d_init_res =   1.52654296684682E+00
(PID.TID 0000.0001)      cg2d_iters(min,last) =      -1      35
(PID.TID 0000.0001)      cg2d_last_res =   8.39302078211892E-08
(PID.TID 0000.0001) // =======================================================
(PID.TID 0000.0001) // Begin MONITOR dynamic field statistics
(PID.TID 0000.0001) // =======================================================
(PID.TID 0000.0001) %MON time_tsnumber                =                   240
(PID.TID 0000.0001) %MON time_secondsf                =   1.4400000000000E+04
(PID.TID 0000.0001) %MON dynstat_eta_max              =   2.8722320917150E-02
(PID.TID 0000.0001) %MON dynstat_eta_min              =  -3.9100441789409E-02
(PID.TID 0000.0001) %MON dynstat_eta_mean             =  -2.0005329217044E-20
(PID.TID 0000.0001) %MON dynstat_eta_sd               =   1.2009745490491E-03
(PID.TID 0000.0001) %MON dynstat_eta_del2             =   9.0417434755344E-07
(PID.TID 0000.0001) %MON dynstat_uvel_max             =   2.4765238262047E-01
(PID.TID 0000.0001) %MON dynstat_uvel_min             =  -1.5125579152034E-01
(PID.TID 0000.0001) %MON dynstat_uvel_mean            =  -2.6675051138329E-05
(PID.TID 0000.0001) %MON dynstat_uvel_sd              =   3.9481207869438E-03
(PID.TID 0000.0001) %MON dynstat_uvel_del2            =   1.0731782334127E-06
(PID.TID 0000.0001) %MON dynstat_vvel_max             =   1.9595138370062E-01
(PID.TID 0000.0001) %MON dynstat_vvel_min             =  -9.2418054007797E-02
(PID.TID 0000.0001) %MON dynstat_vvel_mean            =   9.0304296884354E-05
(PID.TID 0000.0001) %MON dynstat_vvel_sd              =   4.8164636536796E-04
(PID.TID 0000.0001) %MON dynstat_vvel_del2            =   9.6179590064686E-07
(PID.TID 0000.0001) %MON dynstat_wvel_max             =   2.2864783700289E-04
(PID.TID 0000.0001) %MON dynstat_wvel_min             =  -1.4046878361438E-04
(PID.TID 0000.0001) %MON dynstat_wvel_mean            =   7.5872898424418E-09
(PID.TID 0000.0001) %MON dynstat_wvel_sd              =   9.0089404743346E-07
(PID.TID 0000.0001) %MON dynstat_wvel_del2            =   2.5824123325375E-09
(PID.TID 0000.0001) %MON dynstat_theta_max            =   1.6581618256631E+01
(PID.TID 0000.0001) %MON dynstat_theta_min            =   4.2491069506627E+00
(PID.TID 0000.0001) %MON dynstat_theta_mean           =   7.6151826054076E+00
(PID.TID 0000.0001) %MON dynstat_theta_sd             =   3.6062259663734E+00
(PID.TID 0000.0001) %MON dynstat_theta_del2           =   1.2282704229929E-07
(PID.TID 0000.0001) %MON dynstat_salt_max             =   3.4471497655945E+01
(PID.TID 0000.0001) %MON dynstat_salt_min             =   3.3629985819299E+01
(PID.TID 0000.0001) %MON dynstat_salt_mean            =   3.4187265064200E+01
(PID.TID 0000.0001) %MON dynstat_salt_sd              =   2.7103839125595E-01
(PID.TID 0000.0001) %MON dynstat_salt_del2            =   4.4432100306038E-09
(PID.TID 0000.0001) %MON trAdv_CFL_u_max              =   7.4164386803583E-03
(PID.TID 0000.0001) %MON trAdv_CFL_v_max              =   8.0204241679351E-03
(PID.TID 0000.0001) %MON trAdv_CFL_w_max              =   6.0145139142983E-03
(PID.TID 0000.0001) %MON advcfl_uvel_max              =   7.3983136036389E-03
(PID.TID 0000.0001) %MON advcfl_vvel_max              =   5.8510416154262E-03
(PID.TID 0000.0001) %MON advcfl_wvel_max              =   6.3808698698481E-03
(PID.TID 0000.0001) %MON advcfl_W_hf_max              =   6.8594351100867E-03
(PID.TID 0000.0001) %MON pe_b_mean                    =   7.5611817793466E-09
(PID.TID 0000.0001) %MON ke_max                       =   3.6757099199795E-02
(PID.TID 0000.0001) %MON ke_mean                      =   7.9139612846019E-06
(PID.TID 0000.0001) %MON ke_vol                       =   8.2760855027014E+14
(PID.TID 0000.0001) %MON vort_r_min                   =  -1.5088328867605E-04
(PID.TID 0000.0001) %MON vort_r_max                   =   2.2081041685723E-04
(PID.TID 0000.0001) %MON vort_a_mean                  =   6.9582958995909E-04
(PID.TID 0000.0001) %MON vort_a_sd                    =   1.4387268743365E-06
(PID.TID 0000.0001) %MON vort_p_mean                  =   7.0012686801198E-04
(PID.TID 0000.0001) %MON vort_p_sd                    =   9.4530569627982E-05
(PID.TID 0000.0001) %MON surfExpan_theta_mean         =  -2.7764250463090E-12
(PID.TID 0000.0001) %MON surfExpan_salt_mean          =   5.3571014196545E-21
(PID.TID 0000.0001) // =======================================================
(PID.TID 0000.0001) // End MONITOR dynamic field statistics
(PID.TID 0000.0001) // =======================================================
(PID.TID 0000.0001) // =======================================================
(PID.TID 0000.0001) // Begin OBCS MONITOR field statistics
(PID.TID 0000.0001) // =======================================================
(PID.TID 0000.0001) %MON obc_S_vVel_max               =   1.0473798404487E-04
(PID.TID 0000.0001) %MON obc_S_vVel_min               =  -4.6492654529553E-03
(PID.TID 0000.0001) %MON obc_S_vVel_mean              =  -4.4544920036315E-21
(PID.TID 0000.0001) %MON obc_S_vVel_sd                =   2.0981810573729E-04
(PID.TID 0000.0001) %MON obc_S_vVel_Int               =  -7.5637274221663E-12
(PID.TID 0000.0001) // =======================================================
(PID.TID 0000.0001) // End OBCS MONITOR field statistics
(PID.TID 0000.0001) // =======================================================
 EXTERNAL_FIELDS_LOAD,       240 : iP,iLd,i0,i1=   12   13   12   13 ; Wght=  0.5000000000  0.5000000000
 cg2d: Sum(rhs),rhsMax =  -2.20268248085631E-13  1.75241399005117E-03
 EXTERNAL_FIELDS_LOAD,       241 : iP,iLd,i0,i1=   12   13   12   13 ; Wght=  0.4500000000  0.5500000000
 cg2d: Sum(rhs),rhsMax =  -1.31450406115619E-13  1.70143139004922E-03
 EXTERNAL_FIELDS_LOAD,       242 : iP,iLd,i0,i1=   12   13   12   13 ; Wght=  0.4000000000  0.6000000000
 cg2d: Sum(rhs),rhsMax =   1.06581410364015E-14  1.64786945142433E-03
 EXTERNAL_FIELDS_LOAD,       243 : iP,iLd,i0,i1=   12   13   12   13 ; Wght=  0.3500000000  0.6500000000
 cg2d: Sum(rhs),rhsMax =   9.94759830064140E-14  1.59216794604820E-03
 EXTERNAL_FIELDS_LOAD,       244 : iP,iLd,i0,i1=   12   13   12   13 ; Wght=  0.3000000000  0.7000000000
 cg2d: Sum(rhs),rhsMax =  -1.27897692436818E-13  1.53477700921054E-03
 EXTERNAL_FIELDS_LOAD,       245 : iP,iLd,i0,i1=   12   13   12   13 ; Wght=  0.2500000000  0.7500000000
 cg2d: Sum(rhs),rhsMax =  -1.95399252334028E-13  1.47615056872118E-03
 EXTERNAL_FIELDS_LOAD,       246 : iP,iLd,i0,i1=   12   13   12   13 ; Wght=  0.2000000000  0.8000000000
 cg2d: Sum(rhs),rhsMax =  -1.59872115546023E-13  1.41673973913635E-03
 EXTERNAL_FIELDS_LOAD,       247 : iP,iLd,i0,i1=   12   13   12   13 ; Wght=  0.1500000000  0.8500000000
 cg2d: Sum(rhs),rhsMax =  -1.77635683940025E-14  1.35698628374452E-03
 EXTERNAL_FIELDS_LOAD,       248 : iP,iLd,i0,i1=   12   13   12   13 ; Wght=  0.1000000000  0.9000000000
 cg2d: Sum(rhs),rhsMax =  -1.31450406115619E-13  1.29731625170571E-03
 EXTERNAL_FIELDS_LOAD,       249 : iP,iLd,i0,i1=   12   13   12   13 ; Wght=  0.0500000000  0.9500000000
 cg2d: Sum(rhs),rhsMax =   1.20792265079217E-13  1.28115078724734E-03
 EXTERNAL_FIELDS_LOAD,       250 : iP,iLd,i0,i1=   12   13   13   14 ; Wght=  1.0000000000  0.0000000000
 EXTERNAL_FIELDS_LOAD, it=       250 : Reading new data, i0,i1=   13   14 (prev=   12   13 )
(PID.TID 0000.0001)  MDS_READ_FIELD: opening global file: ../input/merid_halfgauss2p5hr_272x320.bin
(PID.TID 0000.0001)  MDS_READ_FIELD: opening global file: ../input/merid_halfgauss2p5hr_272x320.bin
 cg2d: Sum(rhs),rhsMax =  -3.55271367880050E-15  1.34150356945452E-03
 EXTERNAL_FIELDS_LOAD,       251 : iP,iLd,i0,i1=   13   14   13   14 ; Wght=  0.9500000000  0.0500000000
 cg2d: Sum(rhs),rhsMax =  -1.01962882581574E-12  1.39598112223238E-03
 EXTERNAL_FIELDS_LOAD,       252 : iP,iLd,i0,i1=   13   14   13   14 ; Wght=  0.9000000000  0.1000000000
 cg2d: Sum(rhs),rhsMax =  -7.85149723014911E-13  1.45749897217428E-03
 EXTERNAL_FIELDS_LOAD,       253 : iP,iLd,i0,i1=   13   14   13   14 ; Wght=  0.8500000000  0.1500000000
 cg2d: Sum(rhs),rhsMax =  -6.00408611717285E-13  1.52438121123877E-03
 EXTERNAL_FIELDS_LOAD,       254 : iP,iLd,i0,i1=   13   14   13   14 ; Wght=  0.8000000000  0.2000000000
 cg2d: Sum(rhs),rhsMax =  -2.59348098552437E-13  1.58657974527130E-03
 EXTERNAL_FIELDS_LOAD,       255 : iP,iLd,i0,i1=   13   14   13   14 ; Wght=  0.7500000000  0.2500000000
 cg2d: Sum(rhs),rhsMax =  -3.87245790989255E-13  1.64442556834670E-03
 EXTERNAL_FIELDS_LOAD,       256 : iP,iLd,i0,i1=   13   14   13   14 ; Wght=  0.7000000000  0.3000000000
 cg2d: Sum(rhs),rhsMax =  -2.09610107049230E-13  1.69824792014861E-03
 EXTERNAL_FIELDS_LOAD,       257 : iP,iLd,i0,i1=   13   14   13   14 ; Wght=  0.6500000000  0.3500000000
 cg2d: Sum(rhs),rhsMax =   7.56728013584507E-13  1.74836154270673E-03
 EXTERNAL_FIELDS_LOAD,       258 : iP,iLd,i0,i1=   13   14   13   14 ; Wght=  0.6000000000  0.4000000000
 cg2d: Sum(rhs),rhsMax =   1.38555833473220E-13  1.79505528290918E-03
 EXTERNAL_FIELDS_LOAD,       259 : iP,iLd,i0,i1=   13   14   13   14 ; Wght=  0.5500000000  0.4500000000
 cg2d: Sum(rhs),rhsMax =   5.68434188608080E-14  1.83858228383273E-03
(PID.TID 0000.0001)      cg2d_init_res =   1.25908494116404E+00
(PID.TID 0000.0001)      cg2d_iters(min,last) =      -1      35
(PID.TID 0000.0001)      cg2d_last_res =   6.83068845644110E-08
(PID.TID 0000.0001) // =======================================================
(PID.TID 0000.0001) // Begin MONITOR dynamic field statistics
(PID.TID 0000.0001) // =======================================================
(PID.TID 0000.0001) %MON time_tsnumber                =                   260
(PID.TID 0000.0001) %MON time_secondsf                =   1.5600000000000E+04
(PID.TID 0000.0001) %MON dynstat_eta_max              =   2.5281111277489E-02
(PID.TID 0000.0001) %MON dynstat_eta_min              =  -3.1108129659506E-02
(PID.TID 0000.0001) %MON dynstat_eta_mean             =   1.6162200183243E-19
(PID.TID 0000.0001) %MON dynstat_eta_sd               =   1.2360410788488E-03
(PID.TID 0000.0001) %MON dynstat_eta_del2             =   8.7275851653815E-07
(PID.TID 0000.0001) %MON dynstat_uvel_max             =   2.3076333571339E-01
(PID.TID 0000.0001) %MON dynstat_uvel_min             =  -1.4430981408918E-01
(PID.TID 0000.0001) %MON dynstat_uvel_mean            =   5.2786669286085E-05
(PID.TID 0000.0001) %MON dynstat_uvel_sd              =   2.3218588926107E-03
(PID.TID 0000.0001) %MON dynstat_uvel_del2            =   1.0783228443465E-06
(PID.TID 0000.0001) %MON dynstat_vvel_max             =   1.6306299909684E-01
(PID.TID 0000.0001) %MON dynstat_vvel_min             =  -8.7957397973181E-02
(PID.TID 0000.0001) %MON dynstat_vvel_mean            =   7.5013373774788E-05
(PID.TID 0000.0001) %MON dynstat_vvel_sd              =   3.2158174877223E-03
(PID.TID 0000.0001) %MON dynstat_vvel_del2            =   1.0076921755027E-06
(PID.TID 0000.0001) %MON dynstat_wvel_max             =   1.7828978549322E-04
(PID.TID 0000.0001) %MON dynstat_wvel_min             =  -1.5230922104185E-04
(PID.TID 0000.0001) %MON dynstat_wvel_mean            =  -1.2291185130869E-07
(PID.TID 0000.0001) %MON dynstat_wvel_sd              =   1.2319339490071E-06
(PID.TID 0000.0001) %MON dynstat_wvel_del2            =   2.8540004039890E-09
(PID.TID 0000.0001) %MON dynstat_theta_max            =   1.6581653300308E+01
(PID.TID 0000.0001) %MON dynstat_theta_min            =   4.2490962463885E+00
(PID.TID 0000.0001) %MON dynstat_theta_mean           =   7.6151839238947E+00
(PID.TID 0000.0001) %MON dynstat_theta_sd             =   3.6062261665606E+00
(PID.TID 0000.0001) %MON dynstat_theta_del2           =   1.3179191464481E-07
(PID.TID 0000.0001) %MON dynstat_salt_max             =   3.4471498859978E+01
(PID.TID 0000.0001) %MON dynstat_salt_min             =   3.3629986033575E+01
(PID.TID 0000.0001) %MON dynstat_salt_mean            =   3.4187264984705E+01
(PID.TID 0000.0001) %MON dynstat_salt_sd              =   2.7103839600964E-01
(PID.TID 0000.0001) %MON dynstat_salt_del2            =   4.8237262364795E-09
(PID.TID 0000.0001) %MON trAdv_CFL_u_max              =   6.9223471829412E-03
(PID.TID 0000.0001) %MON trAdv_CFL_v_max              =   6.8814796017841E-03
(PID.TID 0000.0001) %MON trAdv_CFL_w_max              =   4.7178373219981E-03
(PID.TID 0000.0001) %MON advcfl_uvel_max              =   6.8937738767722E-03
(PID.TID 0000.0001) %MON advcfl_vvel_max              =   4.8690056463673E-03
(PID.TID 0000.0001) %MON advcfl_wvel_max              =   4.9755288974853E-03
(PID.TID 0000.0001) %MON advcfl_W_hf_max              =   5.3486935647967E-03
(PID.TID 0000.0001) %MON pe_b_mean                    =   8.0091767880832E-09
(PID.TID 0000.0001) %MON ke_max                       =   2.9076393000898E-02
(PID.TID 0000.0001) %MON ke_mean                      =   7.8617647953381E-06
(PID.TID 0000.0001) %MON ke_vol                       =   8.2760855027014E+14
(PID.TID 0000.0001) %MON vort_r_min                   =  -1.5536319952112E-04
(PID.TID 0000.0001) %MON vort_r_max                   =   1.9413220843830E-04
(PID.TID 0000.0001) %MON vort_a_mean                  =   6.9582958995909E-04
(PID.TID 0000.0001) %MON vort_a_sd                    =   1.4347486240214E-06
(PID.TID 0000.0001) %MON vort_p_mean                  =   7.0012686801198E-04
(PID.TID 0000.0001) %MON vort_p_sd                    =   9.4529926159433E-05
(PID.TID 0000.0001) %MON surfExpan_theta_mean         =  -3.2804248718103E-13
(PID.TID 0000.0001) %MON surfExpan_salt_mean          =   1.6048683101337E-20
(PID.TID 0000.0001) // =======================================================
(PID.TID 0000.0001) // End MONITOR dynamic field statistics
(PID.TID 0000.0001) // =======================================================
(PID.TID 0000.0001) // =======================================================
(PID.TID 0000.0001) // Begin OBCS MONITOR field statistics
(PID.TID 0000.0001) // =======================================================
(PID.TID 0000.0001) %MON obc_S_vVel_max               =   6.4564511766464E-02
(PID.TID 0000.0001) %MON obc_S_vVel_min               =  -2.5598141866042E-04
(PID.TID 0000.0001) %MON obc_S_vVel_mean              =   1.6015248282103E-19
(PID.TID 0000.0001) %MON obc_S_vVel_sd                =   2.8906061838913E-03
(PID.TID 0000.0001) %MON obc_S_vVel_Int               =   2.7193891583011E-10
(PID.TID 0000.0001) // =======================================================
(PID.TID 0000.0001) // End OBCS MONITOR field statistics
(PID.TID 0000.0001) // =======================================================
 EXTERNAL_FIELDS_LOAD,       260 : iP,iLd,i0,i1=   13   14   13   14 ; Wght=  0.5000000000  0.5000000000
 cg2d: Sum(rhs),rhsMax =  -5.82645043323282E-13  1.87997227496304E-03
 EXTERNAL_FIELDS_LOAD,       261 : iP,iLd,i0,i1=   13   14   13   14 ; Wght=  0.4500000000  0.5500000000
 cg2d: Sum(rhs),rhsMax =   3.55271367880050E-14  1.94479192274257E-03
 EXTERNAL_FIELDS_LOAD,       262 : iP,iLd,i0,i1=   13   14   13   14 ; Wght=  0.4000000000  0.6000000000
 cg2d: Sum(rhs),rhsMax =   2.02504679691629E-13  2.00726111375900E-03
 EXTERNAL_FIELDS_LOAD,       263 : iP,iLd,i0,i1=   13   14   13   14 ; Wght=  0.3500000000  0.6500000000
 cg2d: Sum(rhs),rhsMax =   1.77635683940025E-14  2.06724511379495E-03
 EXTERNAL_FIELDS_LOAD,       264 : iP,iLd,i0,i1=   13   14   13   14 ; Wght=  0.3000000000  0.7000000000
 cg2d: Sum(rhs),rhsMax =  -4.05009359383257E-13  2.12454934290404E-03
 EXTERNAL_FIELDS_LOAD,       265 : iP,iLd,i0,i1=   13   14   13   14 ; Wght=  0.2500000000  0.7500000000
 cg2d: Sum(rhs),rhsMax =  -6.00408611717285E-13  2.17892422111833E-03
 EXTERNAL_FIELDS_LOAD,       266 : iP,iLd,i0,i1=   13   14   13   14 ; Wght=  0.2000000000  0.8000000000
 cg2d: Sum(rhs),rhsMax =   7.81597009336110E-14  2.23007164160360E-03
 EXTERNAL_FIELDS_LOAD,       267 : iP,iLd,i0,i1=   13   14   13   14 ; Wght=  0.1500000000  0.8500000000
 cg2d: Sum(rhs),rhsMax =  -3.90798504668055E-14  2.27765282094173E-03
 EXTERNAL_FIELDS_LOAD,       268 : iP,iLd,i0,i1=   13   14   13   14 ; Wght=  0.1000000000  0.9000000000
 cg2d: Sum(rhs),rhsMax =  -1.97175609173428E-13  2.32129725206616E-03
 EXTERNAL_FIELDS_LOAD,       269 : iP,iLd,i0,i1=   13   14   13   14 ; Wght=  0.0500000000  0.9500000000
 cg2d: Sum(rhs),rhsMax =  -1.15463194561016E-13  2.36898963812935E-03
 EXTERNAL_FIELDS_LOAD,       270 : iP,iLd,i0,i1=   13   14   14   15 ; Wght=  1.0000000000  0.0000000000
 EXTERNAL_FIELDS_LOAD, it=       270 : Reading new data, i0,i1=   14   15 (prev=   13   14 )
(PID.TID 0000.0001)  MDS_READ_FIELD: opening global file: ../input/merid_halfgauss2p5hr_272x320.bin
(PID.TID 0000.0001)  MDS_READ_FIELD: opening global file: ../input/merid_halfgauss2p5hr_272x320.bin
 cg2d: Sum(rhs),rhsMax =  -3.85469434149854E-13  2.43568569721744E-03
 EXTERNAL_FIELDS_LOAD,       271 : iP,iLd,i0,i1=   14   15   14   15 ; Wght=  0.9500000000  0.0500000000
 cg2d: Sum(rhs),rhsMax =   4.83169060316868E-13  2.49705252480268E-03
 EXTERNAL_FIELDS_LOAD,       272 : iP,iLd,i0,i1=   14   15   14   15 ; Wght=  0.9000000000  0.1000000000
 cg2d: Sum(rhs),rhsMax =  -3.55271367880050E-14  2.55245027449506E-03
 EXTERNAL_FIELDS_LOAD,       273 : iP,iLd,i0,i1=   14   15   14   15 ; Wght=  0.8500000000  0.1500000000
 cg2d: Sum(rhs),rhsMax =  -4.22772927777260E-13  2.60127182819547E-03
 EXTERNAL_FIELDS_LOAD,       274 : iP,iLd,i0,i1=   14   15   14   15 ; Wght=  0.8000000000  0.2000000000
 cg2d: Sum(rhs),rhsMax =  -5.73763259126281E-13  2.64295539303974E-03
 EXTERNAL_FIELDS_LOAD,       275 : iP,iLd,i0,i1=   14   15   14   15 ; Wght=  0.7500000000  0.2500000000
 cg2d: Sum(rhs),rhsMax =  -4.42312853010662E-13  2.67699575282652E-03
 EXTERNAL_FIELDS_LOAD,       276 : iP,iLd,i0,i1=   14   15   14   15 ; Wght=  0.7000000000  0.3000000000
 cg2d: Sum(rhs),rhsMax =  -2.07833750209829E-13  2.70295397258679E-03
 EXTERNAL_FIELDS_LOAD,       277 : iP,iLd,i0,i1=   14   15   14   15 ; Wght=  0.6500000000  0.3500000000
 cg2d: Sum(rhs),rhsMax =  -1.59872115546023E-14  2.72046540923944E-03
 EXTERNAL_FIELDS_LOAD,       278 : iP,iLd,i0,i1=   14   15   14   15 ; Wght=  0.6000000000  0.4000000000
 cg2d: Sum(rhs),rhsMax =  -1.67865721323324E-13  2.72924593549102E-03
 EXTERNAL_FIELDS_LOAD,       279 : iP,iLd,i0,i1=   14   15   14   15 ; Wght=  0.5500000000  0.4500000000
 cg2d: Sum(rhs),rhsMax =   7.28306304154103E-14  2.75300992996970E-03
(PID.TID 0000.0001)      cg2d_init_res =   6.15937413659430E-01
(PID.TID 0000.0001)      cg2d_iters(min,last) =      -1      33
(PID.TID 0000.0001)      cg2d_last_res =   9.82562939962312E-08
(PID.TID 0000.0001) // =======================================================
(PID.TID 0000.0001) // Begin MONITOR dynamic field statistics
(PID.TID 0000.0001) // =======================================================
(PID.TID 0000.0001) %MON time_tsnumber                =                   280
(PID.TID 0000.0001) %MON time_secondsf                =   1.6800000000000E+04
(PID.TID 0000.0001) %MON dynstat_eta_max              =   2.8311746677099E-02
(PID.TID 0000.0001) %MON dynstat_eta_min              =  -3.0409921863143E-02
(PID.TID 0000.0001) %MON dynstat_eta_mean             =   1.1897906323821E-19
(PID.TID 0000.0001) %MON dynstat_eta_sd               =   1.0834019387608E-03
(PID.TID 0000.0001) %MON dynstat_eta_del2             =   8.5921487367597E-07
(PID.TID 0000.0001) %MON dynstat_uvel_max             =   2.1222922752185E-01
(PID.TID 0000.0001) %MON dynstat_uvel_min             =  -1.3401397611006E-01
(PID.TID 0000.0001) %MON dynstat_uvel_mean            =   7.4866824784729E-05
(PID.TID 0000.0001) %MON dynstat_uvel_sd              =   8.5297584158413E-04
(PID.TID 0000.0001) %MON dynstat_uvel_del2            =   1.0165775192646E-06
(PID.TID 0000.0001) %MON dynstat_vvel_max             =   1.5514470791507E-01
(PID.TID 0000.0001) %MON dynstat_vvel_min             =  -9.2010117121421E-02
(PID.TID 0000.0001) %MON dynstat_vvel_mean            =  -2.9266259911588E-05
(PID.TID 0000.0001) %MON dynstat_vvel_sd              =   3.8636703773915E-03
(PID.TID 0000.0001) %MON dynstat_vvel_del2            =   1.0412948497388E-06
(PID.TID 0000.0001) %MON dynstat_wvel_max             =   1.3653485099028E-04
(PID.TID 0000.0001) %MON dynstat_wvel_min             =  -1.8492215621018E-04
(PID.TID 0000.0001) %MON dynstat_wvel_mean            =  -1.7276699575417E-07
(PID.TID 0000.0001) %MON dynstat_wvel_sd              =   1.6234552662857E-06
(PID.TID 0000.0001) %MON dynstat_wvel_del2            =   3.0805827781075E-09
(PID.TID 0000.0001) %MON dynstat_theta_max            =   1.6581656628691E+01
(PID.TID 0000.0001) %MON dynstat_theta_min            =   4.2491052352212E+00
(PID.TID 0000.0001) %MON dynstat_theta_mean           =   7.6151871706752E+00
(PID.TID 0000.0001) %MON dynstat_theta_sd             =   3.6062284126102E+00
(PID.TID 0000.0001) %MON dynstat_theta_del2           =   1.4644541990130E-07
(PID.TID 0000.0001) %MON dynstat_salt_max             =   3.4471497848953E+01
(PID.TID 0000.0001) %MON dynstat_salt_min             =   3.3629977893990E+01
(PID.TID 0000.0001) %MON dynstat_salt_mean            =   3.4187264786976E+01
(PID.TID 0000.0001) %MON dynstat_salt_sd              =   2.7103849362846E-01
(PID.TID 0000.0001) %MON dynstat_salt_del2            =   5.3745164597652E-09
(PID.TID 0000.0001) %MON trAdv_CFL_u_max              =   6.3677767757849E-03
(PID.TID 0000.0001) %MON trAdv_CFL_v_max              =   5.8535322553913E-03
(PID.TID 0000.0001) %MON trAdv_CFL_w_max              =   5.5231923291087E-03
(PID.TID 0000.0001) %MON advcfl_uvel_max              =   6.3400899456352E-03
(PID.TID 0000.0001) %MON advcfl_vvel_max              =   4.6325681670670E-03
(PID.TID 0000.0001) %MON advcfl_wvel_max              =   5.1606183128424E-03
(PID.TID 0000.0001) %MON advcfl_W_hf_max              =   5.5476646863055E-03
(PID.TID 0000.0001) %MON pe_b_mean                    =   6.1532036364872E-09
(PID.TID 0000.0001) %MON ke_max                       =   2.2571078827375E-02
(PID.TID 0000.0001) %MON ke_mean                      =   7.8141763234105E-06
(PID.TID 0000.0001) %MON ke_vol                       =   8.2760855027014E+14
(PID.TID 0000.0001) %MON vort_r_min                   =  -1.4332802652604E-04
(PID.TID 0000.0001) %MON vort_r_max                   =   1.7092452940678E-04
(PID.TID 0000.0001) %MON vort_a_mean                  =   6.9582958995909E-04
(PID.TID 0000.0001) %MON vort_a_sd                    =   1.4299249296120E-06
(PID.TID 0000.0001) %MON vort_p_mean                  =   7.0012686801198E-04
(PID.TID 0000.0001) %MON vort_p_sd                    =   9.4521704762632E-05
(PID.TID 0000.0001) %MON surfExpan_theta_mean         =  -9.3285673795988E-15
(PID.TID 0000.0001) %MON surfExpan_salt_mean          =  -6.9261871713613E-21
(PID.TID 0000.0001) // =======================================================
(PID.TID 0000.0001) // End MONITOR dynamic field statistics
(PID.TID 0000.0001) // =======================================================
(PID.TID 0000.0001) // =======================================================
(PID.TID 0000.0001) // Begin OBCS MONITOR field statistics
(PID.TID 0000.0001) // =======================================================
(PID.TID 0000.0001) %MON obc_S_vVel_max               =   9.0171167447974E-02
(PID.TID 0000.0001) %MON obc_S_vVel_min               =  -3.8857810909988E-04
(PID.TID 0000.0001) %MON obc_S_vVel_mean              =  -6.4794132629620E-20
(PID.TID 0000.0001) %MON obc_S_vVel_sd                =   4.0374723611547E-03
(PID.TID 0000.0001) %MON obc_S_vVel_Int               =  -1.1002043720509E-10
(PID.TID 0000.0001) // =======================================================
(PID.TID 0000.0001) // End OBCS MONITOR field statistics
(PID.TID 0000.0001) // =======================================================
 EXTERNAL_FIELDS_LOAD,       280 : iP,iLd,i0,i1=   14   15   14   15 ; Wght=  0.5000000000  0.5000000000
 cg2d: Sum(rhs),rhsMax =  -1.66977542903624E-13  2.77670037048774E-03
 EXTERNAL_FIELDS_LOAD,       281 : iP,iLd,i0,i1=   14   15   14   15 ; Wght=  0.4500000000  0.5500000000
 cg2d: Sum(rhs),rhsMax =  -2.07833750209829E-13  2.79049077402870E-03
 EXTERNAL_FIELDS_LOAD,       282 : iP,iLd,i0,i1=   14   15   14   15 ; Wght=  0.4000000000  0.6000000000
 cg2d: Sum(rhs),rhsMax =   3.76587649952853E-13  2.79427579108092E-03
 EXTERNAL_FIELDS_LOAD,       283 : iP,iLd,i0,i1=   14   15   14   15 ; Wght=  0.3500000000  0.6500000000
 cg2d: Sum(rhs),rhsMax =  -4.15667500419659E-13  2.78805763989129E-03
 EXTERNAL_FIELDS_LOAD,       284 : iP,iLd,i0,i1=   14   15   14   15 ; Wght=  0.3000000000  0.7000000000
 cg2d: Sum(rhs),rhsMax =  -8.88178419700125E-14  2.77194247121132E-03
 EXTERNAL_FIELDS_LOAD,       285 : iP,iLd,i0,i1=   14   15   14   15 ; Wght=  0.2500000000  0.7500000000
 cg2d: Sum(rhs),rhsMax =  -4.06785716222657E-13  2.74613496203806E-03
 EXTERNAL_FIELDS_LOAD,       286 : iP,iLd,i0,i1=   14   15   14   15 ; Wght=  0.2000000000  0.8000000000
 cg2d: Sum(rhs),rhsMax =  -1.71418435002124E-13  2.71093136919324E-03
 EXTERNAL_FIELDS_LOAD,       287 : iP,iLd,i0,i1=   14   15   14   15 ; Wght=  0.1500000000  0.8500000000
 cg2d: Sum(rhs),rhsMax =  -9.29922805426031E-13  2.66671128990859E-03
 EXTERNAL_FIELDS_LOAD,       288 : iP,iLd,i0,i1=   14   15   14   15 ; Wght=  0.1000000000  0.9000000000
 cg2d: Sum(rhs),rhsMax =  -3.74811293113453E-13  2.61392838513725E-03
 EXTERNAL_FIELDS_LOAD,       289 : iP,iLd,i0,i1=   14   15   14   15 ; Wght=  0.0500000000  0.9500000000
 cg2d: Sum(rhs),rhsMax =  -4.52970994047064E-13  2.55310032287748E-03
 EXTERNAL_FIELDS_LOAD,       290 : iP,iLd,i0,i1=   14   15   15   16 ; Wght=  1.0000000000  0.0000000000
 EXTERNAL_FIELDS_LOAD, it=       290 : Reading new data, i0,i1=   15   16 (prev=   14   15 )
(PID.TID 0000.0001)  MDS_READ_FIELD: opening global file: ../input/merid_halfgauss2p5hr_272x320.bin
(PID.TID 0000.0001)  MDS_READ_FIELD: opening global file: ../input/merid_halfgauss2p5hr_272x320.bin
 cg2d: Sum(rhs),rhsMax =  -2.27373675443232E-13  2.49479314853091E-03
 EXTERNAL_FIELDS_LOAD,       291 : iP,iLd,i0,i1=   15   16   15   16 ; Wght=  0.9500000000  0.0500000000
 cg2d: Sum(rhs),rhsMax =   2.38919994899334E-13  2.45225332625866E-03
 EXTERNAL_FIELDS_LOAD,       292 : iP,iLd,i0,i1=   15   16   15   16 ; Wght=  0.9000000000  0.1000000000
 cg2d: Sum(rhs),rhsMax =  -4.84945417156268E-13  2.40280745945140E-03
 EXTERNAL_FIELDS_LOAD,       293 : iP,iLd,i0,i1=   15   16   15   16 ; Wght=  0.8500000000  0.1500000000
 cg2d: Sum(rhs),rhsMax =  -1.68753899743024E-13  2.34703242805533E-03
 EXTERNAL_FIELDS_LOAD,       294 : iP,iLd,i0,i1=   15   16   15   16 ; Wght=  0.8000000000  0.2000000000
 cg2d: Sum(rhs),rhsMax =   1.42108547152020E-14  2.28552856194609E-03
 EXTERNAL_FIELDS_LOAD,       295 : iP,iLd,i0,i1=   15   16   15   16 ; Wght=  0.7500000000  0.2500000000
 cg2d: Sum(rhs),rhsMax =  -2.12274642308330E-13  2.21890858781460E-03
 EXTERNAL_FIELDS_LOAD,       296 : iP,iLd,i0,i1=   15   16   15   16 ; Wght=  0.7000000000  0.3000000000
 cg2d: Sum(rhs),rhsMax =  -4.97379915032070E-13  2.15733870620358E-03
 EXTERNAL_FIELDS_LOAD,       297 : iP,iLd,i0,i1=   15   16   15   16 ; Wght=  0.6500000000  0.3500000000
 cg2d: Sum(rhs),rhsMax =  -4.86721773995669E-13  2.12189821021468E-03
 EXTERNAL_FIELDS_LOAD,       298 : iP,iLd,i0,i1=   15   16   15   16 ; Wght=  0.6000000000  0.4000000000
 cg2d: Sum(rhs),rhsMax =  -3.59712259978551E-14  2.08276078932707E-03
 EXTERNAL_FIELDS_LOAD,       299 : iP,iLd,i0,i1=   15   16   15   16 ; Wght=  0.5500000000  0.4500000000
 cg2d: Sum(rhs),rhsMax =  -2.39364084109184E-13  2.15330394952529E-03
(PID.TID 0000.0001)      cg2d_init_res =   1.21421245512144E+00
(PID.TID 0000.0001)      cg2d_iters(min,last) =      -1      35
(PID.TID 0000.0001)      cg2d_last_res =   6.50996138708995E-08
(PID.TID 0000.0001) // =======================================================
(PID.TID 0000.0001) // Begin MONITOR dynamic field statistics
(PID.TID 0000.0001) // =======================================================
(PID.TID 0000.0001) %MON time_tsnumber                =                   300
(PID.TID 0000.0001) %MON time_secondsf                =   1.8000000000000E+04
(PID.TID 0000.0001) %MON dynstat_eta_max              =   3.7487983996565E-02
(PID.TID 0000.0001) %MON dynstat_eta_min              =  -2.6185245071881E-02
(PID.TID 0000.0001) %MON dynstat_eta_mean             =   4.4880376730341E-20
(PID.TID 0000.0001) %MON dynstat_eta_sd               =   8.5744114431186E-04
(PID.TID 0000.0001) %MON dynstat_eta_del2             =   8.4184849879137E-07
(PID.TID 0000.0001) %MON dynstat_uvel_max             =   1.9119731070672E-01
(PID.TID 0000.0001) %MON dynstat_uvel_min             =  -1.2586885709824E-01
(PID.TID 0000.0001) %MON dynstat_uvel_mean            =   1.7876041417510E-05
(PID.TID 0000.0001) %MON dynstat_uvel_sd              =   3.4085478108518E-03
(PID.TID 0000.0001) %MON dynstat_uvel_del2            =   9.6956331099260E-07
(PID.TID 0000.0001) %MON dynstat_vvel_max             =   1.5406561081451E-01
(PID.TID 0000.0001) %MON dynstat_vvel_min             =  -7.5370436071046E-02
(PID.TID 0000.0001) %MON dynstat_vvel_mean            =  -9.2198112958293E-05
(PID.TID 0000.0001) %MON dynstat_vvel_sd              =   1.9803431320236E-03
(PID.TID 0000.0001) %MON dynstat_vvel_del2            =   1.0001736424115E-06
(PID.TID 0000.0001) %MON dynstat_wvel_max             =   1.2298043610943E-04
(PID.TID 0000.0001) %MON dynstat_wvel_min             =  -1.7951077155393E-04
(PID.TID 0000.0001) %MON dynstat_wvel_mean            =  -1.1171740232648E-07
(PID.TID 0000.0001) %MON dynstat_wvel_sd              =   1.3451736240672E-06
(PID.TID 0000.0001) %MON dynstat_wvel_del2            =   2.9602234776273E-09
(PID.TID 0000.0001) %MON dynstat_theta_max            =   1.6581641893154E+01
(PID.TID 0000.0001) %MON dynstat_theta_min            =   4.2491193792107E+00
(PID.TID 0000.0001) %MON dynstat_theta_mean           =   7.6151902409746E+00
(PID.TID 0000.0001) %MON dynstat_theta_sd             =   3.6062304323601E+00
(PID.TID 0000.0001) %MON dynstat_theta_del2           =   1.6732401856556E-07
(PID.TID 0000.0001) %MON dynstat_salt_max             =   3.4471496258087E+01
(PID.TID 0000.0001) %MON dynstat_salt_min             =   3.3629968562007E+01
(PID.TID 0000.0001) %MON dynstat_salt_mean            =   3.4187264599139E+01
(PID.TID 0000.0001) %MON dynstat_salt_sd              =   2.7103858071622E-01
(PID.TID 0000.0001) %MON dynstat_salt_del2            =   6.1532093912786E-09
(PID.TID 0000.0001) %MON trAdv_CFL_u_max              =   5.7461280989460E-03
(PID.TID 0000.0001) %MON trAdv_CFL_v_max              =   5.0719105926316E-03
(PID.TID 0000.0001) %MON trAdv_CFL_w_max              =   5.4663727733086E-03
(PID.TID 0000.0001) %MON advcfl_uvel_max              =   5.7117870210376E-03
(PID.TID 0000.0001) %MON advcfl_vvel_max              =   4.6003466949690E-03
(PID.TID 0000.0001) %MON advcfl_wvel_max              =   5.0096029270865E-03
(PID.TID 0000.0001) %MON advcfl_W_hf_max              =   5.3853231466180E-03
(PID.TID 0000.0001) %MON pe_b_mean                    =   3.8541686079039E-09
(PID.TID 0000.0001) %MON ke_max                       =   1.7134771800923E-02
(PID.TID 0000.0001) %MON ke_mean                      =   7.7674068760673E-06
(PID.TID 0000.0001) %MON ke_vol                       =   8.2760855027014E+14
(PID.TID 0000.0001) %MON vort_r_min                   =  -1.2090675818915E-04
(PID.TID 0000.0001) %MON vort_r_max                   =   1.4785931535461E-04
(PID.TID 0000.0001) %MON vort_a_mean                  =   6.9582958995909E-04
(PID.TID 0000.0001) %MON vort_a_sd                    =   1.4330227493406E-06
(PID.TID 0000.0001) %MON vort_p_mean                  =   7.0012686801198E-04
(PID.TID 0000.0001) %MON vort_p_sd                    =   9.4512332330709E-05
(PID.TID 0000.0001) %MON surfExpan_theta_mean         =  -1.2331128294341E-12
(PID.TID 0000.0001) %MON surfExpan_salt_mean          =  -8.0078897996678E-21
(PID.TID 0000.0001) // =======================================================
(PID.TID 0000.0001) // End MONITOR dynamic field statistics
(PID.TID 0000.0001) // =======================================================
(PID.TID 0000.0001) // =======================================================
(PID.TID 0000.0001) // Begin OBCS MONITOR field statistics
(PID.TID 0000.0001) // =======================================================
(PID.TID 0000.0001) %MON obc_S_vVel_max               =   5.7352472373395E-02
(PID.TID 0000.0001) %MON obc_S_vVel_min               =  -2.9166533573214E-04
(PID.TID 0000.0001) %MON obc_S_vVel_mean              =  -1.6209413081510E-19
(PID.TID 0000.0001) %MON obc_S_vVel_sd                =   2.5681316645529E-03
(PID.TID 0000.0001) %MON obc_S_vVel_Int               =  -2.7523583412403E-10
(PID.TID 0000.0001) // =======================================================
(PID.TID 0000.0001) // End OBCS MONITOR field statistics
(PID.TID 0000.0001) // =======================================================
 EXTERNAL_FIELDS_LOAD,       300 : iP,iLd,i0,i1=   15   16   15   16 ; Wght=  0.5000000000  0.5000000000
 cg2d: Sum(rhs),rhsMax =  -1.66089364483923E-13  2.28723194079159E-03
 EXTERNAL_FIELDS_LOAD,       301 : iP,iLd,i0,i1=   15   16   15   16 ; Wght=  0.4500000000  0.5500000000
 cg2d: Sum(rhs),rhsMax =  -2.15827355987130E-13  2.42684321919774E-03
 EXTERNAL_FIELDS_LOAD,       302 : iP,iLd,i0,i1=   15   16   15   16 ; Wght=  0.4000000000  0.6000000000
 cg2d: Sum(rhs),rhsMax =  -1.95399252334028E-14  2.56027499978849E-03
 EXTERNAL_FIELDS_LOAD,       303 : iP,iLd,i0,i1=   15   16   15   16 ; Wght=  0.3500000000  0.6500000000
 cg2d: Sum(rhs),rhsMax =  -1.72750702631674E-13  2.68695073167223E-03
 EXTERNAL_FIELDS_LOAD,       304 : iP,iLd,i0,i1=   15   16   15   16 ; Wght=  0.3000000000  0.7000000000
 cg2d: Sum(rhs),rhsMax =  -3.47277762102749E-13  2.80637941898522E-03
 EXTERNAL_FIELDS_LOAD,       305 : iP,iLd,i0,i1=   15   16   15   16 ; Wght=  0.2500000000  0.7500000000
 cg2d: Sum(rhs),rhsMax =  -2.21156426505331E-13  2.91815606080016E-03
 EXTERNAL_FIELDS_LOAD,       306 : iP,iLd,i0,i1=   15   16   15   16 ; Wght=  0.2000000000  0.8000000000
 cg2d: Sum(rhs),rhsMax =  -2.30704344517108E-13  3.02196056333874E-03
 EXTERNAL_FIELDS_LOAD,       307 : iP,iLd,i0,i1=   15   16   15   16 ; Wght=  0.1500000000  0.8500000000
 cg2d: Sum(rhs),rhsMax =  -4.44089209850063E-14  3.11755523756620E-03
 EXTERNAL_FIELDS_LOAD,       308 : iP,iLd,i0,i1=   15   16   15   16 ; Wght=  0.1000000000  0.9000000000
 cg2d: Sum(rhs),rhsMax =  -1.29674049276218E-13  3.20478101797881E-03
 EXTERNAL_FIELDS_LOAD,       309 : iP,iLd,i0,i1=   15   16   15   16 ; Wght=  0.0500000000  0.9500000000
 cg2d: Sum(rhs),rhsMax =  -2.64233079860787E-14  3.28355255736054E-03
 EXTERNAL_FIELDS_LOAD,       310 : iP,iLd,i0,i1=   15   16   16   17 ; Wght=  1.0000000000  0.0000000000
 EXTERNAL_FIELDS_LOAD, it=       310 : Reading new data, i0,i1=   16   17 (prev=   15   16 )
(PID.TID 0000.0001)  MDS_READ_FIELD: opening global file: ../input/merid_halfgauss2p5hr_272x320.bin
(PID.TID 0000.0001)  MDS_READ_FIELD: opening global file: ../input/merid_halfgauss2p5hr_272x320.bin
 cg2d: Sum(rhs),rhsMax =  -1.50546242139171E-13  3.35385236714393E-03
 EXTERNAL_FIELDS_LOAD,       311 : iP,iLd,i0,i1=   16   17   16   17 ; Wght=  0.9500000000  0.0500000000
 cg2d: Sum(rhs),rhsMax =  -2.68673971959288E-13  3.41572418351481E-03
 EXTERNAL_FIELDS_LOAD,       312 : iP,iLd,i0,i1=   16   17   16   17 ; Wght=  0.9000000000  0.1000000000
 cg2d: Sum(rhs),rhsMax =  -2.22266649529956E-13  3.47997455144093E-03
 EXTERNAL_FIELDS_LOAD,       313 : iP,iLd,i0,i1=   16   17   16   17 ; Wght=  0.8500000000  0.1500000000
 cg2d: Sum(rhs),rhsMax =   8.65973959207622E-14  3.54432632843551E-03
 EXTERNAL_FIELDS_LOAD,       314 : iP,iLd,i0,i1=   16   17   16   17 ; Wght=  0.8000000000  0.2000000000
 cg2d: Sum(rhs),rhsMax =  -3.53828077948037E-13  3.60174266077590E-03
 EXTERNAL_FIELDS_LOAD,       315 : iP,iLd,i0,i1=   16   17   16   17 ; Wght=  0.7500000000  0.2500000000
 cg2d: Sum(rhs),rhsMax =  -2.25708340906294E-13  3.65246818369851E-03
 EXTERNAL_FIELDS_LOAD,       316 : iP,iLd,i0,i1=   16   17   16   17 ; Wght=  0.7000000000  0.3000000000
 cg2d: Sum(rhs),rhsMax =  -8.80406858527749E-14  3.69676712056342E-03
 EXTERNAL_FIELDS_LOAD,       317 : iP,iLd,i0,i1=   16   17   16   17 ; Wght=  0.6500000000  0.3500000000
 cg2d: Sum(rhs),rhsMax =  -1.34448008282106E-13  3.73491512338900E-03
 EXTERNAL_FIELDS_LOAD,       318 : iP,iLd,i0,i1=   16   17   16   17 ; Wght=  0.6000000000  0.4000000000
 cg2d: Sum(rhs),rhsMax =   1.54321000422897E-14  3.76719151530547E-03
 EXTERNAL_FIELDS_LOAD,       319 : iP,iLd,i0,i1=   16   17   16   17 ; Wght=  0.5500000000  0.4500000000
 cg2d: Sum(rhs),rhsMax =  -1.51323398256409E-13  3.79387205979379E-03
(PID.TID 0000.0001)      cg2d_init_res =   4.62196516111888E-01
(PID.TID 0000.0001)      cg2d_iters(min,last) =      -1      33
(PID.TID 0000.0001)      cg2d_last_res =   8.06823533168159E-08
(PID.TID 0000.0001) // =======================================================
(PID.TID 0000.0001) // Begin MONITOR dynamic field statistics
(PID.TID 0000.0001) // =======================================================
(PID.TID 0000.0001) %MON time_tsnumber                =                   320
(PID.TID 0000.0001) %MON time_secondsf                =   1.9200000000000E+04
(PID.TID 0000.0001) %MON dynstat_eta_max              =   3.9262635161760E-02
(PID.TID 0000.0001) %MON dynstat_eta_min              =  -1.9373989512511E-02
(PID.TID 0000.0001) %MON dynstat_eta_mean             =   2.7553392576237E-19
(PID.TID 0000.0001) %MON dynstat_eta_sd               =   1.0442012996600E-03
(PID.TID 0000.0001) %MON dynstat_eta_del2             =   8.2314563380399E-07
(PID.TID 0000.0001) %MON dynstat_uvel_max             =   1.6572253920901E-01
(PID.TID 0000.0001) %MON dynstat_uvel_min             =  -1.2802798555008E-01
(PID.TID 0000.0001) %MON dynstat_uvel_mean            =  -5.1088412619401E-05
(PID.TID 0000.0001) %MON dynstat_uvel_sd              =   3.7344991064077E-03
(PID.TID 0000.0001) %MON dynstat_uvel_del2            =   9.3818249665431E-07
(PID.TID 0000.0001) %MON dynstat_vvel_max             =   1.4891787268035E-01
(PID.TID 0000.0001) %MON dynstat_vvel_min             =  -7.1732943919691E-02
(PID.TID 0000.0001) %MON dynstat_vvel_mean            =  -5.9183267357877E-05
(PID.TID 0000.0001) %MON dynstat_vvel_sd              =   1.2164575467739E-03
(PID.TID 0000.0001) %MON dynstat_vvel_del2            =   9.1470471408941E-07
(PID.TID 0000.0001) %MON dynstat_wvel_max             =   1.3540575928430E-04
(PID.TID 0000.0001) %MON dynstat_wvel_min             =  -1.4757406709583E-04
(PID.TID 0000.0001) %MON dynstat_wvel_mean            =   2.2718177108057E-08
(PID.TID 0000.0001) %MON dynstat_wvel_sd              =   1.0681883900427E-06
(PID.TID 0000.0001) %MON dynstat_wvel_del2            =   2.8932268334537E-09
(PID.TID 0000.0001) %MON dynstat_theta_max            =   1.6581629023958E+01
(PID.TID 0000.0001) %MON dynstat_theta_min            =   4.2491207874962E+00
(PID.TID 0000.0001) %MON dynstat_theta_mean           =   7.6151911524517E+00
(PID.TID 0000.0001) %MON dynstat_theta_sd             =   3.6062301054740E+00
(PID.TID 0000.0001) %MON dynstat_theta_del2           =   1.8378910992549E-07
(PID.TID 0000.0001) %MON dynstat_salt_max             =   3.4471496099662E+01
(PID.TID 0000.0001) %MON dynstat_salt_min             =   3.3629964886797E+01
(PID.TID 0000.0001) %MON dynstat_salt_mean            =   3.4187264542175E+01
(PID.TID 0000.0001) %MON dynstat_salt_sd              =   2.7103856115205E-01
(PID.TID 0000.0001) %MON dynstat_salt_del2            =   6.7441504548778E-09
(PID.TID 0000.0001) %MON trAdv_CFL_u_max              =   4.9934382547677E-03
(PID.TID 0000.0001) %MON trAdv_CFL_v_max              =   4.6910899870268E-03
(PID.TID 0000.0001) %MON trAdv_CFL_w_max              =   4.5569749199658E-03
(PID.TID 0000.0001) %MON advcfl_uvel_max              =   4.9507592185718E-03
(PID.TID 0000.0001) %MON advcfl_vvel_max              =   4.4466369865736E-03
(PID.TID 0000.0001) %MON advcfl_wvel_max              =   4.1183460584883E-03
(PID.TID 0000.0001) %MON advcfl_W_hf_max              =   4.4272220128749E-03
(PID.TID 0000.0001) %MON pe_b_mean                    =   5.7159777556153E-09
(PID.TID 0000.0001) %MON ke_max                       =   1.2582863744637E-02
(PID.TID 0000.0001) %MON ke_mean                      =   7.7156134407249E-06
(PID.TID 0000.0001) %MON ke_vol                       =   8.2760855027014E+14
(PID.TID 0000.0001) %MON vort_r_min                   =  -9.8288974709167E-05
(PID.TID 0000.0001) %MON vort_r_max                   =   1.2475631620991E-04
(PID.TID 0000.0001) %MON vort_a_mean                  =   6.9582958995909E-04
(PID.TID 0000.0001) %MON vort_a_sd                    =   1.4352920483309E-06
(PID.TID 0000.0001) %MON vort_p_mean                  =   7.0012686801198E-04
(PID.TID 0000.0001) %MON vort_p_sd                    =   9.4507334421795E-05
(PID.TID 0000.0001) %MON surfExpan_theta_mean         =  -1.5819518334377E-12
(PID.TID 0000.0001) %MON surfExpan_salt_mean          =  -1.5608598762064E-21
(PID.TID 0000.0001) // =======================================================
(PID.TID 0000.0001) // End MONITOR dynamic field statistics
(PID.TID 0000.0001) // =======================================================
(PID.TID 0000.0001) // =======================================================
(PID.TID 0000.0001) // Begin OBCS MONITOR field statistics
(PID.TID 0000.0001) // =======================================================
(PID.TID 0000.0001) %MON obc_S_vVel_max               =   9.0202470398476E-05
(PID.TID 0000.0001) %MON obc_S_vVel_min               =  -1.2978243962359E-02
(PID.TID 0000.0001) %MON obc_S_vVel_mean              =   1.5332323815224E-20
(PID.TID 0000.0001) %MON obc_S_vVel_sd                =   5.8116499998515E-04
(PID.TID 0000.0001) %MON obc_S_vVel_Int               =   2.6034285838250E-11
(PID.TID 0000.0001) // =======================================================
(PID.TID 0000.0001) // End OBCS MONITOR field statistics
(PID.TID 0000.0001) // =======================================================
 EXTERNAL_FIELDS_LOAD,       320 : iP,iLd,i0,i1=   16   17   16   17 ; Wght=  0.5000000000  0.5000000000
 cg2d: Sum(rhs),rhsMax =  -1.75970349403087E-13  3.81522236023131E-03
 EXTERNAL_FIELDS_LOAD,       321 : iP,iLd,i0,i1=   16   17   16   17 ; Wght=  0.4500000000  0.5500000000
 cg2d: Sum(rhs),rhsMax =  -4.83446616073024E-13  3.83149197065261E-03
 EXTERNAL_FIELDS_LOAD,       322 : iP,iLd,i0,i1=   16   17   16   17 ; Wght=  0.4000000000  0.6000000000
 cg2d: Sum(rhs),rhsMax =  -7.17204073907851E-14  3.84290927545913E-03
 EXTERNAL_FIELDS_LOAD,       323 : iP,iLd,i0,i1=   16   17   16   17 ; Wght=  0.3500000000  0.6500000000
 cg2d: Sum(rhs),rhsMax =  -2.40085729075190E-13  3.84967717278371E-03
 EXTERNAL_FIELDS_LOAD,       324 : iP,iLd,i0,i1=   16   17   16   17 ; Wght=  0.3000000000  0.7000000000
 cg2d: Sum(rhs),rhsMax =  -7.22533144426052E-13  3.85196957402607E-03
 EXTERNAL_FIELDS_LOAD,       325 : iP,iLd,i0,i1=   16   17   16   17 ; Wght=  0.2500000000  0.7500000000
 cg2d: Sum(rhs),rhsMax =  -4.55718796033011E-13  3.84992871137339E-03
 EXTERNAL_FIELDS_LOAD,       326 : iP,iLd,i0,i1=   16   17   16   17 ; Wght=  0.2000000000  0.8000000000
 cg2d: Sum(rhs),rhsMax =  -7.89451837235333E-13  3.84366322649792E-03
 EXTERNAL_FIELDS_LOAD,       327 : iP,iLd,i0,i1=   16   17   16   17 ; Wght=  0.1500000000  0.8500000000
 cg2d: Sum(rhs),rhsMax =  -4.50361969939195E-13  3.83324699759403E-03
 EXTERNAL_FIELDS_LOAD,       328 : iP,iLd,i0,i1=   16   17   16   17 ; Wght=  0.1000000000  0.9000000000
 cg2d: Sum(rhs),rhsMax =   4.77257122710739E-14  3.81871864889970E-03
 EXTERNAL_FIELDS_LOAD,       329 : iP,iLd,i0,i1=   16   17   16   17 ; Wght=  0.0500000000  0.9500000000
 cg2d: Sum(rhs),rhsMax =  -6.54282183987220E-13  3.80008167715184E-03
 EXTERNAL_FIELDS_LOAD,       330 : iP,iLd,i0,i1=   16   17   17   18 ; Wght=  1.0000000000  0.0000000000
 EXTERNAL_FIELDS_LOAD, it=       330 : Reading new data, i0,i1=   17   18 (prev=   16   17 )
(PID.TID 0000.0001)  MDS_READ_FIELD: opening global file: ../input/merid_halfgauss2p5hr_272x320.bin
(PID.TID 0000.0001)  MDS_READ_FIELD: opening global file: ../input/merid_halfgauss2p5hr_272x320.bin
 cg2d: Sum(rhs),rhsMax =  -4.10043526910542E-13  3.77730512324145E-03
 EXTERNAL_FIELDS_LOAD,       331 : iP,iLd,i0,i1=   17   18   17   18 ; Wght=  0.9500000000  0.0500000000
 cg2d: Sum(rhs),rhsMax =   3.04398867223554E-13  3.75032471472479E-03
 EXTERNAL_FIELDS_LOAD,       332 : iP,iLd,i0,i1=   17   18   17   18 ; Wght=  0.9000000000  0.1000000000
 cg2d: Sum(rhs),rhsMax =  -5.19584375524573E-13  3.71904440574100E-03
 EXTERNAL_FIELDS_LOAD,       333 : iP,iLd,i0,i1=   17   18   17   18 ; Wght=  0.8500000000  0.1500000000
 cg2d: Sum(rhs),rhsMax =   2.45831133227625E-13  3.68333824508036E-03
 EXTERNAL_FIELDS_LOAD,       334 : iP,iLd,i0,i1=   17   18   17   18 ; Wght=  0.8000000000  0.2000000000
 cg2d: Sum(rhs),rhsMax =  -3.41338068921004E-13  3.64305251031139E-03
 EXTERNAL_FIELDS_LOAD,       335 : iP,iLd,i0,i1=   17   18   17   18 ; Wght=  0.7500000000  0.2500000000
 cg2d: Sum(rhs),rhsMax =  -5.77315972805081E-14  3.61788961982337E-03
 EXTERNAL_FIELDS_LOAD,       336 : iP,iLd,i0,i1=   17   18   17   18 ; Wght=  0.7000000000  0.3000000000
 cg2d: Sum(rhs),rhsMax =  -9.93649607039515E-15  3.59329376120101E-03
 EXTERNAL_FIELDS_LOAD,       337 : iP,iLd,i0,i1=   17   18   17   18 ; Wght=  0.6500000000  0.3500000000
 cg2d: Sum(rhs),rhsMax =  -6.98135993459914E-13  3.56449241398338E-03
 EXTERNAL_FIELDS_LOAD,       338 : iP,iLd,i0,i1=   17   18   17   18 ; Wght=  0.6000000000  0.4000000000
 cg2d: Sum(rhs),rhsMax =   9.13158437754191E-15  3.53127580029835E-03
 EXTERNAL_FIELDS_LOAD,       339 : iP,iLd,i0,i1=   17   18   17   18 ; Wght=  0.5500000000  0.4500000000
 cg2d: Sum(rhs),rhsMax =   4.69346783660285E-14  3.49342009941561E-03
(PID.TID 0000.0001)      cg2d_init_res =   5.87162107745445E-01
(PID.TID 0000.0001)      cg2d_iters(min,last) =      -1      33
(PID.TID 0000.0001)      cg2d_last_res =   8.65407741668851E-08
(PID.TID 0000.0001) // =======================================================
(PID.TID 0000.0001) // Begin MONITOR dynamic field statistics
(PID.TID 0000.0001) // =======================================================
(PID.TID 0000.0001) %MON time_tsnumber                =                   340
(PID.TID 0000.0001) %MON time_secondsf                =   2.0400000000000E+04
(PID.TID 0000.0001) %MON dynstat_eta_max              =   2.7371821384497E-02
(PID.TID 0000.0001) %MON dynstat_eta_min              =  -1.8230606568574E-02
(PID.TID 0000.0001) %MON dynstat_eta_mean             =   2.1426760503518E-19
(PID.TID 0000.0001) %MON dynstat_eta_sd               =   1.0568166653130E-03
(PID.TID 0000.0001) %MON dynstat_eta_del2             =   7.2212561289318E-07
(PID.TID 0000.0001) %MON dynstat_uvel_max             =   1.3963472631717E-01
(PID.TID 0000.0001) %MON dynstat_uvel_min             =  -1.3837010659190E-01
(PID.TID 0000.0001) %MON dynstat_uvel_mean            =  -6.3087155634422E-05
(PID.TID 0000.0001) %MON dynstat_uvel_sd              =   1.6194587621482E-03
(PID.TID 0000.0001) %MON dynstat_uvel_del2            =   8.7814078416619E-07
(PID.TID 0000.0001) %MON dynstat_vvel_max             =   1.4199474890702E-01
(PID.TID 0000.0001) %MON dynstat_vvel_min             =  -9.2297423722656E-02
(PID.TID 0000.0001) %MON dynstat_vvel_mean            =   3.1740369569004E-05
(PID.TID 0000.0001) %MON dynstat_vvel_sd              =   3.5673707085965E-03
(PID.TID 0000.0001) %MON dynstat_vvel_del2            =   8.5286978575117E-07
(PID.TID 0000.0001) %MON dynstat_wvel_max             =   1.4049277841341E-04
(PID.TID 0000.0001) %MON dynstat_wvel_min             =  -1.2672729559988E-04
(PID.TID 0000.0001) %MON dynstat_wvel_mean            =   1.4511403755384E-07
(PID.TID 0000.0001) %MON dynstat_wvel_sd              =   1.5244658635549E-06
(PID.TID 0000.0001) %MON dynstat_wvel_del2            =   2.8882038744248E-09
(PID.TID 0000.0001) %MON dynstat_theta_max            =   1.6581635606362E+01
(PID.TID 0000.0001) %MON dynstat_theta_min            =   4.2491095822862E+00
(PID.TID 0000.0001) %MON dynstat_theta_mean           =   7.6151892806849E+00
(PID.TID 0000.0001) %MON dynstat_theta_sd             =   3.6062268082815E+00
(PID.TID 0000.0001) %MON dynstat_theta_del2           =   1.9377881373404E-07
(PID.TID 0000.0001) %MON dynstat_salt_max             =   3.4471497359946E+01
(PID.TID 0000.0001) %MON dynstat_salt_min             =   3.3629966804321E+01
(PID.TID 0000.0001) %MON dynstat_salt_mean            =   3.4187264655529E+01
(PID.TID 0000.0001) %MON dynstat_salt_sd              =   2.7103840625459E-01
(PID.TID 0000.0001) %MON dynstat_salt_del2            =   7.1360041153681E-09
(PID.TID 0000.0001) %MON trAdv_CFL_u_max              =   4.2024141514837E-03
(PID.TID 0000.0001) %MON trAdv_CFL_v_max              =   4.3961381406828E-03
(PID.TID 0000.0001) %MON trAdv_CFL_w_max              =   3.7981556543088E-03
(PID.TID 0000.0001) %MON advcfl_uvel_max              =   4.1714175503649E-03
(PID.TID 0000.0001) %MON advcfl_vvel_max              =   4.2399148673342E-03
(PID.TID 0000.0001) %MON advcfl_wvel_max              =   3.9207286999090E-03
(PID.TID 0000.0001) %MON advcfl_W_hf_max              =   4.2147833524022E-03
(PID.TID 0000.0001) %MON pe_b_mean                    =   5.8549255572693E-09
(PID.TID 0000.0001) %MON ke_max                       =   9.4405368246331E-03
(PID.TID 0000.0001) %MON ke_mean                      =   7.6652766243549E-06
(PID.TID 0000.0001) %MON ke_vol                       =   8.2760855027014E+14
(PID.TID 0000.0001) %MON vort_r_min                   =  -9.4506176804956E-05
(PID.TID 0000.0001) %MON vort_r_max                   =   1.1441379831323E-04
(PID.TID 0000.0001) %MON vort_a_mean                  =   6.9582958995909E-04
(PID.TID 0000.0001) %MON vort_a_sd                    =   1.4303036871979E-06
(PID.TID 0000.0001) %MON vort_p_mean                  =   7.0012686801198E-04
(PID.TID 0000.0001) %MON vort_p_sd                    =   9.4509440310074E-05
(PID.TID 0000.0001) %MON surfExpan_theta_mean         =  -2.2450133232364E-12
(PID.TID 0000.0001) %MON surfExpan_salt_mean          =   1.7479985438412E-22
(PID.TID 0000.0001) // =======================================================
(PID.TID 0000.0001) // End MONITOR dynamic field statistics
(PID.TID 0000.0001) // =======================================================
(PID.TID 0000.0001) // =======================================================
(PID.TID 0000.0001) // Begin OBCS MONITOR field statistics
(PID.TID 0000.0001) // =======================================================
(PID.TID 0000.0001) %MON obc_S_vVel_max               =   3.0020556146588E-04
(PID.TID 0000.0001) %MON obc_S_vVel_min               =  -7.4810390564133E-02
(PID.TID 0000.0001) %MON obc_S_vVel_mean              =  -3.6958265266391E-20
(PID.TID 0000.0001) %MON obc_S_vVel_sd                =   3.3498575893922E-03
(PID.TID 0000.0001) %MON obc_S_vVel_Int               =  -6.2755134422332E-11
(PID.TID 0000.0001) // =======================================================
(PID.TID 0000.0001) // End OBCS MONITOR field statistics
(PID.TID 0000.0001) // =======================================================
 EXTERNAL_FIELDS_LOAD,       340 : iP,iLd,i0,i1=   17   18   17   18 ; Wght=  0.5000000000  0.5000000000
 cg2d: Sum(rhs),rhsMax =  -5.39013278455514E-13  3.45068967209835E-03
 EXTERNAL_FIELDS_LOAD,       341 : iP,iLd,i0,i1=   17   18   17   18 ; Wght=  0.4500000000  0.5500000000
 cg2d: Sum(rhs),rhsMax =  -4.12447853648246E-13  3.40283935147609E-03
 EXTERNAL_FIELDS_LOAD,       342 : iP,iLd,i0,i1=   17   18   17   18 ; Wght=  0.4000000000  0.6000000000
 cg2d: Sum(rhs),rhsMax =  -6.17284001691587E-14  3.34961683781039E-03
 EXTERNAL_FIELDS_LOAD,       343 : iP,iLd,i0,i1=   17   18   17   18 ; Wght=  0.3500000000  0.6500000000
 cg2d: Sum(rhs),rhsMax =  -4.27213819875760E-13  3.29076524280909E-03
 EXTERNAL_FIELDS_LOAD,       344 : iP,iLd,i0,i1=   17   18   17   18 ; Wght=  0.3000000000  0.7000000000
 cg2d: Sum(rhs),rhsMax =  -1.36557432028894E-14  3.22602583406226E-03
 EXTERNAL_FIELDS_LOAD,       345 : iP,iLd,i0,i1=   17   18   17   18 ; Wght=  0.2500000000  0.7500000000
 cg2d: Sum(rhs),rhsMax =  -2.37476704967321E-13  3.15514103328758E-03
 EXTERNAL_FIELDS_LOAD,       346 : iP,iLd,i0,i1=   17   18   17   18 ; Wght=  0.2000000000  0.8000000000
 cg2d: Sum(rhs),rhsMax =  -1.60566004936413E-13  3.07785771655874E-03
 EXTERNAL_FIELDS_LOAD,       347 : iP,iLd,i0,i1=   17   18   17   18 ; Wght=  0.1500000000  0.8500000000
 cg2d: Sum(rhs),rhsMax =  -1.15796261468404E-13  2.99393086252726E-03
 EXTERNAL_FIELDS_LOAD,       348 : iP,iLd,i0,i1=   17   18   17   18 ; Wght=  0.1000000000  0.9000000000
 cg2d: Sum(rhs),rhsMax =  -4.71012118197223E-14  2.90312758189356E-03
 EXTERNAL_FIELDS_LOAD,       349 : iP,iLd,i0,i1=   17   18   17   18 ; Wght=  0.0500000000  0.9500000000
 cg2d: Sum(rhs),rhsMax =  -5.28049826087340E-14  2.82332500536580E-03
 EXTERNAL_FIELDS_LOAD,       350 : iP,iLd,i0,i1=   17   18   18   19 ; Wght=  1.0000000000  0.0000000000
 EXTERNAL_FIELDS_LOAD, it=       350 : Reading new data, i0,i1=   18   19 (prev=   17   18 )
(PID.TID 0000.0001)  MDS_READ_FIELD: opening global file: ../input/merid_halfgauss2p5hr_272x320.bin
(PID.TID 0000.0001)  MDS_READ_FIELD: opening global file: ../input/merid_halfgauss2p5hr_272x320.bin
 cg2d: Sum(rhs),rhsMax =   4.49640324973188E-15  2.75328661849352E-03
 EXTERNAL_FIELDS_LOAD,       351 : iP,iLd,i0,i1=   18   19   18   19 ; Wght=  0.9500000000  0.0500000000
 cg2d: Sum(rhs),rhsMax =  -8.78186412478499E-14  2.67744561649285E-03
 EXTERNAL_FIELDS_LOAD,       352 : iP,iLd,i0,i1=   18   19   18   19 ; Wght=  0.9000000000  0.1000000000
 cg2d: Sum(rhs),rhsMax =  -6.80011602582908E-14  2.59557214886710E-03
 EXTERNAL_FIELDS_LOAD,       353 : iP,iLd,i0,i1=   18   19   18   19 ; Wght=  0.8500000000  0.1500000000
 cg2d: Sum(rhs),rhsMax =  -4.13391543219177E-13  2.50746052682402E-03
 EXTERNAL_FIELDS_LOAD,       354 : iP,iLd,i0,i1=   18   19   18   19 ; Wght=  0.8000000000  0.2000000000
 cg2d: Sum(rhs),rhsMax =  -2.21267448807794E-13  2.41293616132870E-03
 EXTERNAL_FIELDS_LOAD,       355 : iP,iLd,i0,i1=   18   19   18   19 ; Wght=  0.7500000000  0.2500000000
 cg2d: Sum(rhs),rhsMax =  -5.87307980026708E-14  2.43939539612127E-03
 EXTERNAL_FIELDS_LOAD,       356 : iP,iLd,i0,i1=   18   19   18   19 ; Wght=  0.7000000000  0.3000000000
 cg2d: Sum(rhs),rhsMax =  -7.34967642301854E-14  2.50006095038126E-03
 EXTERNAL_FIELDS_LOAD,       357 : iP,iLd,i0,i1=   18   19   18   19 ; Wght=  0.6500000000  0.3500000000
 cg2d: Sum(rhs),rhsMax =  -1.03472785895065E-13  2.55840524661771E-03
 EXTERNAL_FIELDS_LOAD,       358 : iP,iLd,i0,i1=   18   19   18   19 ; Wght=  0.6000000000  0.4000000000
 cg2d: Sum(rhs),rhsMax =  -9.76996261670138E-14  2.61899147503986E-03
 EXTERNAL_FIELDS_LOAD,       359 : iP,iLd,i0,i1=   18   19   18   19 ; Wght=  0.5500000000  0.4500000000
 cg2d: Sum(rhs),rhsMax =   1.26565424807268E-14  2.67804597707760E-03
(PID.TID 0000.0001)      cg2d_init_res =   1.07062694575269E+00
(PID.TID 0000.0001)      cg2d_iters(min,last) =      -1      35
(PID.TID 0000.0001)      cg2d_last_res =   6.88461405927700E-08
(PID.TID 0000.0001) // =======================================================
(PID.TID 0000.0001) // Begin MONITOR dynamic field statistics
(PID.TID 0000.0001) // =======================================================
(PID.TID 0000.0001) %MON time_tsnumber                =                   360
(PID.TID 0000.0001) %MON time_secondsf                =   2.1600000000000E+04
(PID.TID 0000.0001) %MON dynstat_eta_max              =   1.6556666891535E-02
(PID.TID 0000.0001) %MON dynstat_eta_min              =  -2.7962093436087E-02
(PID.TID 0000.0001) %MON dynstat_eta_mean             =   4.3301008634259E-20
(PID.TID 0000.0001) %MON dynstat_eta_sd               =   8.4234665542747E-04
(PID.TID 0000.0001) %MON dynstat_eta_del2             =   6.2381015079605E-07
(PID.TID 0000.0001) %MON dynstat_uvel_max             =   1.2030622033439E-01
(PID.TID 0000.0001) %MON dynstat_uvel_min             =  -1.3177885919946E-01
(PID.TID 0000.0001) %MON dynstat_uvel_mean            =  -5.9079157944792E-06
(PID.TID 0000.0001) %MON dynstat_uvel_sd              =   1.5737927773144E-03
(PID.TID 0000.0001) %MON dynstat_uvel_del2            =   8.0880383058409E-07
(PID.TID 0000.0001) %MON dynstat_vvel_max             =   1.2931430754892E-01
(PID.TID 0000.0001) %MON dynstat_vvel_min             =  -1.0696131091053E-01
(PID.TID 0000.0001) %MON dynstat_vvel_mean            =   8.8163150880710E-05
(PID.TID 0000.0001) %MON dynstat_vvel_sd              =   3.5751392266290E-03
(PID.TID 0000.0001) %MON dynstat_vvel_del2            =   8.1039857824667E-07
(PID.TID 0000.0001) %MON dynstat_wvel_max             =   1.1926744128607E-04
(PID.TID 0000.0001) %MON dynstat_wvel_min             =  -1.1194767301924E-04
(PID.TID 0000.0001) %MON dynstat_wvel_mean            =   1.7206569866702E-07
(PID.TID 0000.0001) %MON dynstat_wvel_sd              =   1.7183349645611E-06
(PID.TID 0000.0001) %MON dynstat_wvel_del2            =   2.9654413500900E-09
(PID.TID 0000.0001) %MON dynstat_theta_max            =   1.6581642193889E+01
(PID.TID 0000.0001) %MON dynstat_theta_min            =   4.2490940342413E+00
(PID.TID 0000.0001) %MON dynstat_theta_mean           =   7.6151858307228E+00
(PID.TID 0000.0001) %MON dynstat_theta_sd             =   3.6062218695416E+00
(PID.TID 0000.0001) %MON dynstat_theta_del2           =   2.0133714916332E-07
(PID.TID 0000.0001) %MON dynstat_salt_max             =   3.4471499108723E+01
(PID.TID 0000.0001) %MON dynstat_salt_min             =   3.3629965149048E+01
(PID.TID 0000.0001) %MON dynstat_salt_mean            =   3.4187264866616E+01
(PID.TID 0000.0001) %MON dynstat_salt_sd              =   2.7103817639360E-01
(PID.TID 0000.0001) %MON dynstat_salt_del2            =   7.4106638421128E-09
(PID.TID 0000.0001) %MON trAdv_CFL_u_max              =   3.9710951612260E-03
(PID.TID 0000.0001) %MON trAdv_CFL_v_max              =   4.0182941710155E-03
(PID.TID 0000.0001) %MON trAdv_CFL_w_max              =   3.4048990189959E-03
(PID.TID 0000.0001) %MON advcfl_uvel_max              =   3.9367330787260E-03
(PID.TID 0000.0001) %MON advcfl_vvel_max              =   3.8612812048051E-03
(PID.TID 0000.0001) %MON advcfl_wvel_max              =   3.3283937103088E-03
(PID.TID 0000.0001) %MON advcfl_W_hf_max              =   3.5780232385820E-03
(PID.TID 0000.0001) %MON pe_b_mean                    =   3.7196646107217E-09
(PID.TID 0000.0001) %MON ke_max                       =   7.3852129941827E-03
(PID.TID 0000.0001) %MON ke_mean                      =   7.6174602629039E-06
(PID.TID 0000.0001) %MON ke_vol                       =   8.2760855027014E+14
(PID.TID 0000.0001) %MON vort_r_min                   =  -8.9317246220175E-05
(PID.TID 0000.0001) %MON vort_r_max                   =   1.0790708142719E-04
(PID.TID 0000.0001) %MON vort_a_mean                  =   6.9582958995909E-04
(PID.TID 0000.0001) %MON vort_a_sd                    =   1.4282658052644E-06
(PID.TID 0000.0001) %MON vort_p_mean                  =   7.0012686801198E-04
(PID.TID 0000.0001) %MON vort_p_sd                    =   9.4515813909003E-05
(PID.TID 0000.0001) %MON surfExpan_theta_mean         =  -1.4497347885183E-12
(PID.TID 0000.0001) %MON surfExpan_salt_mean          =  -1.2832365780669E-21
(PID.TID 0000.0001) // =======================================================
(PID.TID 0000.0001) // End MONITOR dynamic field statistics
(PID.TID 0000.0001) // =======================================================
(PID.TID 0000.0001) // =======================================================
(PID.TID 0000.0001) // Begin OBCS MONITOR field statistics
(PID.TID 0000.0001) // =======================================================
(PID.TID 0000.0001) %MON obc_S_vVel_max               =   3.9344661784033E-04
(PID.TID 0000.0001) %MON obc_S_vVel_min               =  -8.6943480588972E-02
(PID.TID 0000.0001) %MON obc_S_vVel_mean              =  -9.5877238879478E-20
(PID.TID 0000.0001) %MON obc_S_vVel_sd                =   3.8937670935044E-03
(PID.TID 0000.0001) %MON obc_S_vVel_Int               =  -1.6279955161735E-10
(PID.TID 0000.0001) // =======================================================
(PID.TID 0000.0001) // End OBCS MONITOR field statistics
(PID.TID 0000.0001) // =======================================================
 EXTERNAL_FIELDS_LOAD,       360 : iP,iLd,i0,i1=   18   19   18   19 ; Wght=  0.5000000000  0.5000000000
 cg2d: Sum(rhs),rhsMax =  -2.04281036531029E-13  2.74437715478760E-03
 EXTERNAL_FIELDS_LOAD,       361 : iP,iLd,i0,i1=   18   19   18   19 ; Wght=  0.4500000000  0.5500000000
 cg2d: Sum(rhs),rhsMax =  -1.90736315630602E-13  2.88120016778631E-03
 EXTERNAL_FIELDS_LOAD,       362 : iP,iLd,i0,i1=   18   19   18   19 ; Wght=  0.4000000000  0.6000000000
 cg2d: Sum(rhs),rhsMax =  -1.34559030584569E-13  3.01737285121799E-03
 EXTERNAL_FIELDS_LOAD,       363 : iP,iLd,i0,i1=   18   19   18   19 ; Wght=  0.3500000000  0.6500000000
 cg2d: Sum(rhs),rhsMax =  -1.79412040779425E-13  3.14989251687239E-03
 EXTERNAL_FIELDS_LOAD,       364 : iP,iLd,i0,i1=   18   19   18   19 ; Wght=  0.3000000000  0.7000000000
 cg2d: Sum(rhs),rhsMax =  -1.02140518265514E-13  3.27803256734212E-03
 EXTERNAL_FIELDS_LOAD,       365 : iP,iLd,i0,i1=   18   19   18   19 ; Wght=  0.2500000000  0.7500000000
 cg2d: Sum(rhs),rhsMax =  -1.47881706880071E-13  3.40103828308622E-03
 EXTERNAL_FIELDS_LOAD,       366 : iP,iLd,i0,i1=   18   19   18   19 ; Wght=  0.2000000000  0.8000000000
 cg2d: Sum(rhs),rhsMax =  -2.62012633811537E-14  3.51813413263920E-03
 EXTERNAL_FIELDS_LOAD,       367 : iP,iLd,i0,i1=   18   19   18   19 ; Wght=  0.1500000000  0.8500000000
 cg2d: Sum(rhs),rhsMax =   2.97539770599542E-14  3.62853188078493E-03
 EXTERNAL_FIELDS_LOAD,       368 : iP,iLd,i0,i1=   18   19   18   19 ; Wght=  0.1000000000  0.9000000000
 cg2d: Sum(rhs),rhsMax =   5.37347943918576E-14  3.73143938123025E-03
 EXTERNAL_FIELDS_LOAD,       369 : iP,iLd,i0,i1=   18   19   18   19 ; Wght=  0.0500000000  0.9500000000
 cg2d: Sum(rhs),rhsMax =  -7.68274333040608E-14  3.82606992428915E-03
 EXTERNAL_FIELDS_LOAD,       370 : iP,iLd,i0,i1=   18   19   19   20 ; Wght=  1.0000000000  0.0000000000
 EXTERNAL_FIELDS_LOAD, it=       370 : Reading new data, i0,i1=   19   20 (prev=   18   19 )
(PID.TID 0000.0001)  MDS_READ_FIELD: opening global file: ../input/merid_halfgauss2p5hr_272x320.bin
(PID.TID 0000.0001)  MDS_READ_FIELD: opening global file: ../input/merid_halfgauss2p5hr_272x320.bin
 cg2d: Sum(rhs),rhsMax =   1.86517468137026E-14  3.91165199506178E-03
 EXTERNAL_FIELDS_LOAD,       371 : iP,iLd,i0,i1=   19   20   19   20 ; Wght=  0.9500000000  0.0500000000
 cg2d: Sum(rhs),rhsMax =   1.82076576038526E-13  3.98743928555469E-03
 EXTERNAL_FIELDS_LOAD,       372 : iP,iLd,i0,i1=   19   20   19   20 ; Wght=  0.9000000000  0.1000000000
 cg2d: Sum(rhs),rhsMax =   9.05941988094128E-14  4.08946362366181E-03
 EXTERNAL_FIELDS_LOAD,       373 : iP,iLd,i0,i1=   19   20   19   20 ; Wght=  0.8500000000  0.1500000000
 cg2d: Sum(rhs),rhsMax =   2.16715534406831E-13  4.18788349055428E-03
 EXTERNAL_FIELDS_LOAD,       374 : iP,iLd,i0,i1=   19   20   19   20 ; Wght=  0.8000000000  0.2000000000
 cg2d: Sum(rhs),rhsMax =  -1.03472785895065E-13  4.27342644442468E-03
 EXTERNAL_FIELDS_LOAD,       375 : iP,iLd,i0,i1=   19   20   19   20 ; Wght=  0.7500000000  0.2500000000
 cg2d: Sum(rhs),rhsMax =  -3.77475828372553E-13  4.34512823523580E-03
 EXTERNAL_FIELDS_LOAD,       376 : iP,iLd,i0,i1=   19   20   19   20 ; Wght=  0.7000000000  0.3000000000
 cg2d: Sum(rhs),rhsMax =  -3.14415160573844E-13  4.46121792435531E-03
 EXTERNAL_FIELDS_LOAD,       377 : iP,iLd,i0,i1=   19   20   19   20 ; Wght=  0.6500000000  0.3500000000
 cg2d: Sum(rhs),rhsMax =   2.11386463888630E-13  4.59040790750549E-03
 EXTERNAL_FIELDS_LOAD,       378 : iP,iLd,i0,i1=   19   20   19   20 ; Wght=  0.6000000000  0.4000000000
 cg2d: Sum(rhs),rhsMax =  -6.12843109593086E-14  4.70309643994150E-03
 EXTERNAL_FIELDS_LOAD,       379 : iP,iLd,i0,i1=   19   20   19   20 ; Wght=  0.5500000000  0.4500000000
 cg2d: Sum(rhs),rhsMax =   2.30038210702332E-13  4.79841772442526E-03
(PID.TID 0000.0001)      cg2d_init_res =   3.54977761336375E-01
(PID.TID 0000.0001)      cg2d_iters(min,last) =      -1      33
(PID.TID 0000.0001)      cg2d_last_res =   6.64401014733248E-08
(PID.TID 0000.0001) // =======================================================
(PID.TID 0000.0001) // Begin MONITOR dynamic field statistics
(PID.TID 0000.0001) // =======================================================
(PID.TID 0000.0001) %MON time_tsnumber                =                   380
(PID.TID 0000.0001) %MON time_secondsf                =   2.2800000000000E+04
(PID.TID 0000.0001) %MON dynstat_eta_max              =   2.0700674366861E-02
(PID.TID 0000.0001) %MON dynstat_eta_min              =  -2.2660637255306E-02
(PID.TID 0000.0001) %MON dynstat_eta_mean             =   1.0687057450158E-19
(PID.TID 0000.0001) %MON dynstat_eta_sd               =   9.4461972812442E-04
(PID.TID 0000.0001) %MON dynstat_eta_del2             =   5.7675441168247E-07
(PID.TID 0000.0001) %MON dynstat_uvel_max             =   1.0703157867171E-01
(PID.TID 0000.0001) %MON dynstat_uvel_min             =  -1.0217023193900E-01
(PID.TID 0000.0001) %MON dynstat_uvel_mean            =   5.6375912084229E-05
(PID.TID 0000.0001) %MON dynstat_uvel_sd              =   3.6845612604640E-03
(PID.TID 0000.0001) %MON dynstat_uvel_del2            =   7.7775224814970E-07
(PID.TID 0000.0001) %MON dynstat_vvel_max             =   1.1143405732331E-01
(PID.TID 0000.0001) %MON dynstat_vvel_min             =  -7.4403205845212E-02
(PID.TID 0000.0001) %MON dynstat_vvel_mean            =   4.3252132978854E-05
(PID.TID 0000.0001) %MON dynstat_vvel_sd              =   1.2494216622187E-03
(PID.TID 0000.0001) %MON dynstat_vvel_del2            =   7.5503277813952E-07
(PID.TID 0000.0001) %MON dynstat_wvel_max             =   9.8836635052904E-05
(PID.TID 0000.0001) %MON dynstat_wvel_min             =  -1.1111212054535E-04
(PID.TID 0000.0001) %MON dynstat_wvel_mean            =   8.4815589526992E-08
(PID.TID 0000.0001) %MON dynstat_wvel_sd              =   1.1793395666142E-06
(PID.TID 0000.0001) %MON dynstat_wvel_del2            =   2.9217256497719E-09
(PID.TID 0000.0001) %MON dynstat_theta_max            =   1.6581581937097E+01
(PID.TID 0000.0001) %MON dynstat_theta_min            =   4.2490812181052E+00
(PID.TID 0000.0001) %MON dynstat_theta_mean           =   7.6151830771558E+00
(PID.TID 0000.0001) %MON dynstat_theta_sd             =   3.6062177095638E+00
(PID.TID 0000.0001) %MON dynstat_theta_del2           =   2.1166476386426E-07
(PID.TID 0000.0001) %MON dynstat_salt_max             =   3.4471500550246E+01
(PID.TID 0000.0001) %MON dynstat_salt_min             =   3.3629964334193E+01
(PID.TID 0000.0001) %MON dynstat_salt_mean            =   3.4187265036001E+01
(PID.TID 0000.0001) %MON dynstat_salt_sd              =   2.7103798186360E-01
(PID.TID 0000.0001) %MON dynstat_salt_del2            =   7.8834534545513E-09
(PID.TID 0000.0001) %MON trAdv_CFL_u_max              =   3.2008444322172E-03
(PID.TID 0000.0001) %MON trAdv_CFL_v_max              =   3.3812045770562E-03
(PID.TID 0000.0001) %MON trAdv_CFL_w_max              =   2.6003206194932E-03
(PID.TID 0000.0001) %MON advcfl_uvel_max              =   3.1974381838245E-03
(PID.TID 0000.0001) %MON advcfl_vvel_max              =   3.3273830195077E-03
(PID.TID 0000.0001) %MON advcfl_wvel_max              =   2.7582316758950E-03
(PID.TID 0000.0001) %MON advcfl_W_hf_max              =   2.9650990515871E-03
(PID.TID 0000.0001) %MON pe_b_mean                    =   4.6777401624033E-09
(PID.TID 0000.0001) %MON ke_max                       =   6.4925162693381E-03
(PID.TID 0000.0001) %MON ke_mean                      =   7.5672162823018E-06
(PID.TID 0000.0001) %MON ke_vol                       =   8.2760855027014E+14
(PID.TID 0000.0001) %MON vort_r_min                   =  -7.1660360167335E-05
(PID.TID 0000.0001) %MON vort_r_max                   =   1.0034396897601E-04
(PID.TID 0000.0001) %MON vort_a_mean                  =   6.9582958995909E-04
(PID.TID 0000.0001) %MON vort_a_sd                    =   1.4331143504313E-06
(PID.TID 0000.0001) %MON vort_p_mean                  =   7.0012686801198E-04
(PID.TID 0000.0001) %MON vort_p_sd                    =   9.4523346006552E-05
(PID.TID 0000.0001) %MON surfExpan_theta_mean         =   1.9176040998540E-12
(PID.TID 0000.0001) %MON surfExpan_salt_mean          =   8.6371692754506E-22
(PID.TID 0000.0001) // =======================================================
(PID.TID 0000.0001) // End MONITOR dynamic field statistics
(PID.TID 0000.0001) // =======================================================
(PID.TID 0000.0001) // =======================================================
(PID.TID 0000.0001) // Begin OBCS MONITOR field statistics
(PID.TID 0000.0001) // =======================================================
(PID.TID 0000.0001) %MON obc_S_vVel_max               =   2.3664811901339E-04
(PID.TID 0000.0001) %MON obc_S_vVel_min               =  -4.1813605100194E-02
(PID.TID 0000.0001) %MON obc_S_vVel_mean              =  -2.7316978675159E-20
(PID.TID 0000.0001) %MON obc_S_vVel_sd                =   1.8730990285863E-03
(PID.TID 0000.0001) %MON obc_S_vVel_Int               =  -4.6384229790419E-11
(PID.TID 0000.0001) // =======================================================
(PID.TID 0000.0001) // End OBCS MONITOR field statistics
(PID.TID 0000.0001) // =======================================================
 EXTERNAL_FIELDS_LOAD,       380 : iP,iLd,i0,i1=   19   20   19   20 ; Wght=  0.5000000000  0.5000000000
 cg2d: Sum(rhs),rhsMax =  -2.48689957516035E-14  4.87564079419867E-03
 EXTERNAL_FIELDS_LOAD,       381 : iP,iLd,i0,i1=   19   20   19   20 ; Wght=  0.4500000000  0.5500000000
 cg2d: Sum(rhs),rhsMax =   4.79616346638068E-14  4.93418268383258E-03
 EXTERNAL_FIELDS_LOAD,       382 : iP,iLd,i0,i1=   19   20   19   20 ; Wght=  0.4000000000  0.6000000000
 cg2d: Sum(rhs),rhsMax =  -1.75859327100625E-13  4.97361950663801E-03
 EXTERNAL_FIELDS_LOAD,       383 : iP,iLd,i0,i1=   19   20   19   20 ; Wght=  0.3500000000  0.6500000000
 cg2d: Sum(rhs),rhsMax =  -2.50466314355435E-13  4.99369515489173E-03
 EXTERNAL_FIELDS_LOAD,       384 : iP,iLd,i0,i1=   19   20   19   20 ; Wght=  0.3000000000  0.7000000000
 cg2d: Sum(rhs),rhsMax =  -8.79296635503124E-14  4.99432739412629E-03
 EXTERNAL_FIELDS_LOAD,       385 : iP,iLd,i0,i1=   19   20   19   20 ; Wght=  0.2500000000  0.7500000000
 cg2d: Sum(rhs),rhsMax =   2.45137243837235E-13  4.97561116675434E-03
 EXTERNAL_FIELDS_LOAD,       386 : iP,iLd,i0,i1=   19   20   19   20 ; Wght=  0.2000000000  0.8000000000
 cg2d: Sum(rhs),rhsMax =  -2.22044604925031E-14  4.93781898649206E-03
 EXTERNAL_FIELDS_LOAD,       387 : iP,iLd,i0,i1=   19   20   19   20 ; Wght=  0.1500000000  0.8500000000
 cg2d: Sum(rhs),rhsMax =   3.93463039927155E-13  4.88139836581108E-03
 EXTERNAL_FIELDS_LOAD,       388 : iP,iLd,i0,i1=   19   20   19   20 ; Wght=  0.1000000000  0.9000000000
 cg2d: Sum(rhs),rhsMax =   1.84741111297626E-13  4.80696628449356E-03
 EXTERNAL_FIELDS_LOAD,       389 : iP,iLd,i0,i1=   19   20   19   20 ; Wght=  0.0500000000  0.9500000000
 cg2d: Sum(rhs),rhsMax =  -2.71782596428238E-13  4.71530077339080E-03
 EXTERNAL_FIELDS_LOAD,       390 : iP,iLd,i0,i1=   19   20   20   21 ; Wght=  1.0000000000  0.0000000000
 EXTERNAL_FIELDS_LOAD, it=       390 : Reading new data, i0,i1=   20   21 (prev=   19   20 )
(PID.TID 0000.0001)  MDS_READ_FIELD: opening global file: ../input/merid_halfgauss2p5hr_272x320.bin
(PID.TID 0000.0001)  MDS_READ_FIELD: opening global file: ../input/merid_halfgauss2p5hr_272x320.bin
 cg2d: Sum(rhs),rhsMax =  -1.24344978758018E-13  4.60732975233045E-03
 EXTERNAL_FIELDS_LOAD,       391 : iP,iLd,i0,i1=   20   21   20   21 ; Wght=  0.9500000000  0.0500000000
 cg2d: Sum(rhs),rhsMax =  -4.17443857259059E-13  4.56179313877155E-03
 EXTERNAL_FIELDS_LOAD,       392 : iP,iLd,i0,i1=   20   21   20   21 ; Wght=  0.9000000000  0.1000000000
 cg2d: Sum(rhs),rhsMax =   2.33590924381133E-13  4.50600757163804E-03
 EXTERNAL_FIELDS_LOAD,       393 : iP,iLd,i0,i1=   20   21   20   21 ; Wght=  0.8500000000  0.1500000000
 cg2d: Sum(rhs),rhsMax =  -1.97175609173428E-13  4.43784240494385E-03
 EXTERNAL_FIELDS_LOAD,       394 : iP,iLd,i0,i1=   20   21   20   21 ; Wght=  0.8000000000  0.2000000000
 cg2d: Sum(rhs),rhsMax =  -4.31654711974261E-13  4.35842169188331E-03
 EXTERNAL_FIELDS_LOAD,       395 : iP,iLd,i0,i1=   20   21   20   21 ; Wght=  0.7500000000  0.2500000000
 cg2d: Sum(rhs),rhsMax =  -2.76223488526739E-13  4.26892354558353E-03
 EXTERNAL_FIELDS_LOAD,       396 : iP,iLd,i0,i1=   20   21   20   21 ; Wght=  0.7000000000  0.3000000000
 cg2d: Sum(rhs),rhsMax =  -8.17124146124115E-14  4.17055936572913E-03
 EXTERNAL_FIELDS_LOAD,       397 : iP,iLd,i0,i1=   20   21   20   21 ; Wght=  0.6500000000  0.3500000000
 cg2d: Sum(rhs),rhsMax =   2.02504679691629E-13  4.06455277155858E-03
 EXTERNAL_FIELDS_LOAD,       398 : iP,iLd,i0,i1=   20   21   20   21 ; Wght=  0.6000000000  0.4000000000
 cg2d: Sum(rhs),rhsMax =   1.11910480882216E-13  3.95211867557937E-03
 EXTERNAL_FIELDS_LOAD,       399 : iP,iLd,i0,i1=   20   21   20   21 ; Wght=  0.5500000000  0.4500000000
 cg2d: Sum(rhs),rhsMax =   1.08357767203415E-13  3.83444292789151E-03
(PID.TID 0000.0001)      cg2d_init_res =   5.46476259519793E-01
(PID.TID 0000.0001)      cg2d_iters(min,last) =      -1      33
(PID.TID 0000.0001)      cg2d_last_res =   9.33582209405329E-08
(PID.TID 0000.0001) // =======================================================
(PID.TID 0000.0001) // Begin MONITOR dynamic field statistics
(PID.TID 0000.0001) // =======================================================
(PID.TID 0000.0001) %MON time_tsnumber                =                   400
(PID.TID 0000.0001) %MON time_secondsf                =   2.4000000000000E+04
(PID.TID 0000.0001) %MON dynstat_eta_max              =   2.7393134278652E-02
(PID.TID 0000.0001) %MON dynstat_eta_min              =  -1.4314989283725E-02
(PID.TID 0000.0001) %MON dynstat_eta_mean             =   4.7907498914499E-20
(PID.TID 0000.0001) %MON dynstat_eta_sd               =   9.1793969146508E-04
(PID.TID 0000.0001) %MON dynstat_eta_del2             =   6.1667663030654E-07
(PID.TID 0000.0001) %MON dynstat_uvel_max             =   1.0250391909643E-01
(PID.TID 0000.0001) %MON dynstat_uvel_min             =  -1.1007705108695E-01
(PID.TID 0000.0001) %MON dynstat_uvel_mean            =   5.4350989746773E-05
(PID.TID 0000.0001) %MON dynstat_uvel_sd              =   3.3764366741317E-03
(PID.TID 0000.0001) %MON dynstat_uvel_del2            =   7.5542775920517E-07
(PID.TID 0000.0001) %MON dynstat_vvel_max             =   1.0211184482993E-01
(PID.TID 0000.0001) %MON dynstat_vvel_min             =  -4.0474803836970E-02
(PID.TID 0000.0001) %MON dynstat_vvel_mean            =  -4.6713074856026E-05
(PID.TID 0000.0001) %MON dynstat_vvel_sd              =   1.9074221672324E-03
(PID.TID 0000.0001) %MON dynstat_vvel_del2            =   7.0287273198746E-07
(PID.TID 0000.0001) %MON dynstat_wvel_max             =   8.7433405995199E-05
(PID.TID 0000.0001) %MON dynstat_wvel_min             =  -1.2849199473138E-04
(PID.TID 0000.0001) %MON dynstat_wvel_mean            =  -5.6549044807939E-08
(PID.TID 0000.0001) %MON dynstat_wvel_sd              =   1.3135542796336E-06
(PID.TID 0000.0001) %MON dynstat_wvel_del2            =   2.9157897364085E-09
(PID.TID 0000.0001) %MON dynstat_theta_max            =   1.6581452249308E+01
(PID.TID 0000.0001) %MON dynstat_theta_min            =   4.2490815206733E+00
(PID.TID 0000.0001) %MON dynstat_theta_mean           =   7.6151828330815E+00
(PID.TID 0000.0001) %MON dynstat_theta_sd             =   3.6062162446718E+00
(PID.TID 0000.0001) %MON dynstat_theta_del2           =   2.1951511177441E-07
(PID.TID 0000.0001) %MON dynstat_salt_max             =   3.4471500516215E+01
(PID.TID 0000.0001) %MON dynstat_salt_min             =   3.3629964763133E+01
(PID.TID 0000.0001) %MON dynstat_salt_mean            =   3.4187265052332E+01
(PID.TID 0000.0001) %MON dynstat_salt_sd              =   2.7103790998257E-01
(PID.TID 0000.0001) %MON dynstat_salt_del2            =   8.2403585053111E-09
(PID.TID 0000.0001) %MON trAdv_CFL_u_max              =   3.3190625871352E-03
(PID.TID 0000.0001) %MON trAdv_CFL_v_max              =   3.0562130281940E-03
(PID.TID 0000.0001) %MON trAdv_CFL_w_max              =   2.3404430440895E-03
(PID.TID 0000.0001) %MON advcfl_uvel_max              =   3.2884179666993E-03
(PID.TID 0000.0001) %MON advcfl_vvel_max              =   3.0490249277374E-03
(PID.TID 0000.0001) %MON advcfl_wvel_max              =   2.3171438280496E-03
(PID.TID 0000.0001) %MON advcfl_W_hf_max              =   2.4909296151533E-03
(PID.TID 0000.0001) %MON pe_b_mean                    =   4.4172336229977E-09
(PID.TID 0000.0001) %MON ke_max                       =   6.6758958178557E-03
(PID.TID 0000.0001) %MON ke_mean                      =   7.5197516888692E-06
(PID.TID 0000.0001) %MON ke_vol                       =   8.2760855027014E+14
(PID.TID 0000.0001) %MON vort_r_min                   =  -6.3713355643821E-05
(PID.TID 0000.0001) %MON vort_r_max                   =   9.3697904179463E-05
(PID.TID 0000.0001) %MON vort_a_mean                  =   6.9582958995909E-04
(PID.TID 0000.0001) %MON vort_a_sd                    =   1.4336550196726E-06
(PID.TID 0000.0001) %MON vort_p_mean                  =   7.0012686801198E-04
(PID.TID 0000.0001) %MON vort_p_sd                    =   9.4525158201430E-05
(PID.TID 0000.0001) %MON surfExpan_theta_mean         =   2.6024382137359E-12
(PID.TID 0000.0001) %MON surfExpan_salt_mean          =   3.6317240334395E-21
(PID.TID 0000.0001) // =======================================================
(PID.TID 0000.0001) // End MONITOR dynamic field statistics
(PID.TID 0000.0001) // =======================================================
(PID.TID 0000.0001) // =======================================================
(PID.TID 0000.0001) // Begin OBCS MONITOR field statistics
(PID.TID 0000.0001) // =======================================================
(PID.TID 0000.0001) %MON obc_S_vVel_max               =   3.0547898144928E-02
(PID.TID 0000.0001) %MON obc_S_vVel_min               =  -1.4044001745454E-04
(PID.TID 0000.0001) %MON obc_S_vVel_mean              =   5.0884568120394E-20
(PID.TID 0000.0001) %MON obc_S_vVel_sd                =   1.3675807161838E-03
(PID.TID 0000.0001) %MON obc_S_vVel_Int               =   8.6401996668428E-11
(PID.TID 0000.0001) // =======================================================
(PID.TID 0000.0001) // End OBCS MONITOR field statistics
(PID.TID 0000.0001) // =======================================================
 EXTERNAL_FIELDS_LOAD,       400 : iP,iLd,i0,i1=   20   21   20   21 ; Wght=  0.5000000000  0.5000000000
 cg2d: Sum(rhs),rhsMax =  -1.68753899743024E-13  3.71266294664966E-03
 EXTERNAL_FIELDS_LOAD,       401 : iP,iLd,i0,i1=   20   21   20   21 ; Wght=  0.4500000000  0.5500000000
 cg2d: Sum(rhs),rhsMax =  -3.35731442646647E-13  3.58784972637919E-03
 EXTERNAL_FIELDS_LOAD,       402 : iP,iLd,i0,i1=   20   21   20   21 ; Wght=  0.4000000000  0.6000000000
 cg2d: Sum(rhs),rhsMax =  -9.94759830064140E-14  3.46099158269882E-03
 EXTERNAL_FIELDS_LOAD,       403 : iP,iLd,i0,i1=   20   21   20   21 ; Wght=  0.3500000000  0.6500000000
 cg2d: Sum(rhs),rhsMax =  -2.30926389122033E-14  3.33297995467592E-03
 EXTERNAL_FIELDS_LOAD,       404 : iP,iLd,i0,i1=   20   21   20   21 ; Wght=  0.3000000000  0.7000000000
 cg2d: Sum(rhs),rhsMax =   8.17124146124115E-14  3.20459753138366E-03
 EXTERNAL_FIELDS_LOAD,       405 : iP,iLd,i0,i1=   20   21   20   21 ; Wght=  0.2500000000  0.7500000000
 cg2d: Sum(rhs),rhsMax =  -2.00728322852228E-13  3.07650892510893E-03
 EXTERNAL_FIELDS_LOAD,       406 : iP,iLd,i0,i1=   20   21   20   21 ; Wght=  0.2000000000  0.8000000000
 cg2d: Sum(rhs),rhsMax =  -1.36779476633819E-13  2.97115915038819E-03
 EXTERNAL_FIELDS_LOAD,       407 : iP,iLd,i0,i1=   20   21   20   21 ; Wght=  0.1500000000  0.8500000000
 cg2d: Sum(rhs),rhsMax =  -3.69482222595252E-13  2.92880757430429E-03
 EXTERNAL_FIELDS_LOAD,       408 : iP,iLd,i0,i1=   20   21   20   21 ; Wght=  0.1000000000  0.9000000000
 cg2d: Sum(rhs),rhsMax =  -1.35003119794419E-13  2.88759822030865E-03
 EXTERNAL_FIELDS_LOAD,       409 : iP,iLd,i0,i1=   20   21   20   21 ; Wght=  0.0500000000  0.9500000000
 cg2d: Sum(rhs),rhsMax =  -1.56319401867222E-13  2.84745525632865E-03
 EXTERNAL_FIELDS_LOAD,       410 : iP,iLd,i0,i1=   20   21   21   22 ; Wght=  1.0000000000  0.0000000000
 EXTERNAL_FIELDS_LOAD, it=       410 : Reading new data, i0,i1=   21   22 (prev=   20   21 )
(PID.TID 0000.0001)  MDS_READ_FIELD: opening global file: ../input/merid_halfgauss2p5hr_272x320.bin
(PID.TID 0000.0001)  MDS_READ_FIELD: opening global file: ../input/merid_halfgauss2p5hr_272x320.bin
 cg2d: Sum(rhs),rhsMax =  -1.27897692436818E-13  2.80818432924424E-03
 EXTERNAL_FIELDS_LOAD,       411 : iP,iLd,i0,i1=   21   22   21   22 ; Wght=  0.9500000000  0.0500000000
 cg2d: Sum(rhs),rhsMax =   1.42108547152020E-14  2.76947948411478E-03
 EXTERNAL_FIELDS_LOAD,       412 : iP,iLd,i0,i1=   21   22   21   22 ; Wght=  0.9000000000  0.1000000000
 cg2d: Sum(rhs),rhsMax =   1.59872115546023E-13  2.73093245539466E-03
 EXTERNAL_FIELDS_LOAD,       413 : iP,iLd,i0,i1=   21   22   21   22 ; Wght=  0.8500000000  0.1500000000
 cg2d: Sum(rhs),rhsMax =   8.70414851306123E-14  2.69204411933460E-03
 EXTERNAL_FIELDS_LOAD,       414 : iP,iLd,i0,i1=   21   22   21   22 ; Wght=  0.8000000000  0.2000000000
 cg2d: Sum(rhs),rhsMax =   1.77635683940025E-15  2.65223785288592E-03
 EXTERNAL_FIELDS_LOAD,       415 : iP,iLd,i0,i1=   21   22   21   22 ; Wght=  0.7500000000  0.2500000000
 cg2d: Sum(rhs),rhsMax =   9.94759830064140E-14  2.61087450650312E-03
 EXTERNAL_FIELDS_LOAD,       416 : iP,iLd,i0,i1=   21   22   21   22 ; Wght=  0.7000000000  0.3000000000
 cg2d: Sum(rhs),rhsMax =  -3.90798504668055E-14  2.56726866703142E-03
 EXTERNAL_FIELDS_LOAD,       417 : iP,iLd,i0,i1=   21   22   21   22 ; Wght=  0.6500000000  0.3500000000
 cg2d: Sum(rhs),rhsMax =  -3.90798504668055E-14  2.52070586296286E-03
 EXTERNAL_FIELDS_LOAD,       418 : iP,iLd,i0,i1=   21   22   21   22 ; Wght=  0.6000000000  0.4000000000
 cg2d: Sum(rhs),rhsMax =  -3.73034936274053E-14  2.47046034817333E-03
 EXTERNAL_FIELDS_LOAD,       419 : iP,iLd,i0,i1=   21   22   21   22 ; Wght=  0.5500000000  0.4500000000
 cg2d: Sum(rhs),rhsMax =   1.06581410364015E-13  2.46974436955411E-03
(PID.TID 0000.0001)      cg2d_init_res =   1.02476383639812E+00
(PID.TID 0000.0001)      cg2d_iters(min,last) =      -1      34
(PID.TID 0000.0001)      cg2d_last_res =   9.75132596685914E-08
(PID.TID 0000.0001) // =======================================================
(PID.TID 0000.0001) // Begin MONITOR dynamic field statistics
(PID.TID 0000.0001) // =======================================================
(PID.TID 0000.0001) %MON time_tsnumber                =                   420
(PID.TID 0000.0001) %MON time_secondsf                =   2.5200000000000E+04
(PID.TID 0000.0001) %MON dynstat_eta_max              =   2.8220016671204E-02
(PID.TID 0000.0001) %MON dynstat_eta_min              =  -1.3841463978942E-02
(PID.TID 0000.0001) %MON dynstat_eta_mean             =  -1.0529120640549E-21
(PID.TID 0000.0001) %MON dynstat_eta_sd               =   7.5732578695389E-04
(PID.TID 0000.0001) %MON dynstat_eta_del2             =   5.9646788333082E-07
(PID.TID 0000.0001) %MON dynstat_uvel_max             =   9.3412752617903E-02
(PID.TID 0000.0001) %MON dynstat_uvel_min             =  -8.6014354123696E-02
(PID.TID 0000.0001) %MON dynstat_uvel_mean            =  -5.8721197440510E-06
(PID.TID 0000.0001) %MON dynstat_uvel_sd              =   8.7889939531996E-04
(PID.TID 0000.0001) %MON dynstat_uvel_del2            =   7.0579444602257E-07
(PID.TID 0000.0001) %MON dynstat_vvel_max             =   1.0239473213590E-01
(PID.TID 0000.0001) %MON dynstat_vvel_min             =  -4.6662172937562E-02
(PID.TID 0000.0001) %MON dynstat_vvel_mean            =  -8.2156394407206E-05
(PID.TID 0000.0001) %MON dynstat_vvel_sd              =   3.7683284851599E-03
(PID.TID 0000.0001) %MON dynstat_vvel_del2            =   6.8070170712436E-07
(PID.TID 0000.0001) %MON dynstat_wvel_max             =   7.0433145255896E-05
(PID.TID 0000.0001) %MON dynstat_wvel_min             =  -1.4321617505423E-04
(PID.TID 0000.0001) %MON dynstat_wvel_mean            =  -1.5766975210513E-07
(PID.TID 0000.0001) %MON dynstat_wvel_sd              =   1.6843922455419E-06
(PID.TID 0000.0001) %MON dynstat_wvel_del2            =   2.9364927558689E-09
(PID.TID 0000.0001) %MON dynstat_theta_max            =   1.6581302452563E+01
(PID.TID 0000.0001) %MON dynstat_theta_min            =   4.2490915192399E+00
(PID.TID 0000.0001) %MON dynstat_theta_mean           =   7.6151852139437E+00
(PID.TID 0000.0001) %MON dynstat_theta_sd             =   3.6062175841338E+00
(PID.TID 0000.0001) %MON dynstat_theta_del2           =   2.2449509272547E-07
(PID.TID 0000.0001) %MON dynstat_salt_max             =   3.4471499391606E+01
(PID.TID 0000.0001) %MON dynstat_salt_min             =   3.3629963843519E+01
(PID.TID 0000.0001) %MON dynstat_salt_mean            =   3.4187264908189E+01
(PID.TID 0000.0001) %MON dynstat_salt_sd              =   2.7103796577879E-01
(PID.TID 0000.0001) %MON dynstat_salt_del2            =   8.5480911074112E-09
(PID.TID 0000.0001) %MON trAdv_CFL_u_max              =   2.8072069416579E-03
(PID.TID 0000.0001) %MON trAdv_CFL_v_max              =   3.0137521961195E-03
(PID.TID 0000.0001) %MON trAdv_CFL_w_max              =   2.3492951679959E-03
(PID.TID 0000.0001) %MON advcfl_uvel_max              =   2.7906617989814E-03
(PID.TID 0000.0001) %MON advcfl_vvel_max              =   3.0574718463991E-03
(PID.TID 0000.0001) %MON advcfl_wvel_max              =   2.2054359268996E-03
(PID.TID 0000.0001) %MON advcfl_W_hf_max              =   2.3708436214171E-03
(PID.TID 0000.0001) %MON pe_b_mean                    =   3.0066824373868E-09
(PID.TID 0000.0001) %MON ke_max                       =   5.1767917172965E-03
(PID.TID 0000.0001) %MON ke_mean                      =   7.4757846081616E-06
(PID.TID 0000.0001) %MON ke_vol                       =   8.2760855027014E+14
(PID.TID 0000.0001) %MON vort_r_min                   =  -5.7211221905914E-05
(PID.TID 0000.0001) %MON vort_r_max                   =   8.7270244638215E-05
(PID.TID 0000.0001) %MON vort_a_mean                  =   6.9582958995909E-04
(PID.TID 0000.0001) %MON vort_a_sd                    =   1.4278557750586E-06
(PID.TID 0000.0001) %MON vort_p_mean                  =   7.0012686801198E-04
(PID.TID 0000.0001) %MON vort_p_sd                    =   9.4520764877141E-05
(PID.TID 0000.0001) %MON surfExpan_theta_mean         =  -1.4242467298268E-12
(PID.TID 0000.0001) %MON surfExpan_salt_mean          =  -4.9437511757579E-21
(PID.TID 0000.0001) // =======================================================
(PID.TID 0000.0001) // End MONITOR dynamic field statistics
(PID.TID 0000.0001) // =======================================================
(PID.TID 0000.0001) // =======================================================
(PID.TID 0000.0001) // Begin OBCS MONITOR field statistics
(PID.TID 0000.0001) // =======================================================
(PID.TID 0000.0001) %MON obc_S_vVel_max               =   8.2215784639511E-02
(PID.TID 0000.0001) %MON obc_S_vVel_min               =  -3.6047217939841E-04
(PID.TID 0000.0001) %MON obc_S_vVel_mean              =   2.5844004334831E-20
(PID.TID 0000.0001) %MON obc_S_vVel_sd                =   3.6825509164015E-03
(PID.TID 0000.0001) %MON obc_S_vVel_Int               =   4.3883119360544E-11
(PID.TID 0000.0001) // =======================================================
(PID.TID 0000.0001) // End OBCS MONITOR field statistics
(PID.TID 0000.0001) // =======================================================
 EXTERNAL_FIELDS_LOAD,       420 : iP,iLd,i0,i1=   21   22   21   22 ; Wght=  0.5000000000  0.5000000000
 cg2d: Sum(rhs),rhsMax =   5.50670620214078E-14  2.48772766349550E-03
 EXTERNAL_FIELDS_LOAD,       421 : iP,iLd,i0,i1=   21   22   21   22 ; Wght=  0.4500000000  0.5500000000
 cg2d: Sum(rhs),rhsMax =   2.36255459640233E-13  2.50044597887264E-03
 EXTERNAL_FIELDS_LOAD,       422 : iP,iLd,i0,i1=   21   22   21   22 ; Wght=  0.4000000000  0.6000000000
 cg2d: Sum(rhs),rhsMax =   2.30926389122033E-13  2.50701113617272E-03
 EXTERNAL_FIELDS_LOAD,       423 : iP,iLd,i0,i1=   21   22   21   22 ; Wght=  0.3500000000  0.6500000000
 cg2d: Sum(rhs),rhsMax =   2.85993451143440E-13  2.50659453543066E-03
 EXTERNAL_FIELDS_LOAD,       424 : iP,iLd,i0,i1=   21   22   21   22 ; Wght=  0.3000000000  0.7000000000
 cg2d: Sum(rhs),rhsMax =   3.19744231092045E-14  2.49844282241110E-03
 EXTERNAL_FIELDS_LOAD,       425 : iP,iLd,i0,i1=   21   22   21   22 ; Wght=  0.2500000000  0.7500000000
 cg2d: Sum(rhs),rhsMax =   1.68753899743024E-13  2.48189203489368E-03
 EXTERNAL_FIELDS_LOAD,       426 : iP,iLd,i0,i1=   21   22   21   22 ; Wght=  0.2000000000  0.8000000000
 cg2d: Sum(rhs),rhsMax =   1.82964754458226E-13  2.45637998090349E-03
 EXTERNAL_FIELDS_LOAD,       427 : iP,iLd,i0,i1=   21   22   21   22 ; Wght=  0.1500000000  0.8500000000
 cg2d: Sum(rhs),rhsMax =   6.64357457935694E-13  2.42145664020126E-03
 EXTERNAL_FIELDS_LOAD,       428 : iP,iLd,i0,i1=   21   22   21   22 ; Wght=  0.1000000000  0.9000000000
 cg2d: Sum(rhs),rhsMax =  -1.24344978758018E-14  2.42786104712841E-03
 EXTERNAL_FIELDS_LOAD,       429 : iP,iLd,i0,i1=   21   22   21   22 ; Wght=  0.0500000000  0.9500000000
 cg2d: Sum(rhs),rhsMax =   3.64153152077051E-13  2.43229434727430E-03
 EXTERNAL_FIELDS_LOAD,       430 : iP,iLd,i0,i1=   21   22   22   23 ; Wght=  1.0000000000  0.0000000000
 EXTERNAL_FIELDS_LOAD, it=       430 : Reading new data, i0,i1=   22   23 (prev=   21   22 )
(PID.TID 0000.0001)  MDS_READ_FIELD: opening global file: ../input/merid_halfgauss2p5hr_272x320.bin
(PID.TID 0000.0001)  MDS_READ_FIELD: opening global file: ../input/merid_halfgauss2p5hr_272x320.bin
 cg2d: Sum(rhs),rhsMax =   9.23705556488130E-14  2.42575678207283E-03
 EXTERNAL_FIELDS_LOAD,       431 : iP,iLd,i0,i1=   22   23   22   23 ; Wght=  0.9500000000  0.0500000000
 cg2d: Sum(rhs),rhsMax =   1.06581410364015E-14  2.40814334341550E-03
 EXTERNAL_FIELDS_LOAD,       432 : iP,iLd,i0,i1=   22   23   22   23 ; Wght=  0.9000000000  0.1000000000
 cg2d: Sum(rhs),rhsMax =   4.83169060316868E-13  2.37949224643549E-03
 EXTERNAL_FIELDS_LOAD,       433 : iP,iLd,i0,i1=   22   23   22   23 ; Wght=  0.8500000000  0.1500000000
 cg2d: Sum(rhs),rhsMax =   1.11910480882216E-13  2.33998157606241E-03
 EXTERNAL_FIELDS_LOAD,       434 : iP,iLd,i0,i1=   22   23   22   23 ; Wght=  0.8000000000  0.2000000000
 cg2d: Sum(rhs),rhsMax =   6.23501250629488E-13  2.28992354640950E-03
 EXTERNAL_FIELDS_LOAD,       435 : iP,iLd,i0,i1=   22   23   22   23 ; Wght=  0.7500000000  0.2500000000
 cg2d: Sum(rhs),rhsMax =  -9.50350909079134E-14  2.22975654105746E-03
 EXTERNAL_FIELDS_LOAD,       436 : iP,iLd,i0,i1=   22   23   22   23 ; Wght=  0.7000000000  0.3000000000
 cg2d: Sum(rhs),rhsMax =  -7.81597009336110E-14  2.16003514171852E-03
 EXTERNAL_FIELDS_LOAD,       437 : iP,iLd,i0,i1=   22   23   22   23 ; Wght=  0.6500000000  0.3500000000
 cg2d: Sum(rhs),rhsMax =  -1.96287430753728E-13  2.09971403399340E-03
 EXTERNAL_FIELDS_LOAD,       438 : iP,iLd,i0,i1=   22   23   22   23 ; Wght=  0.6000000000  0.4000000000
 cg2d: Sum(rhs),rhsMax =   1.58983937126322E-12  2.17338036163215E-03
 EXTERNAL_FIELDS_LOAD,       439 : iP,iLd,i0,i1=   22   23   22   23 ; Wght=  0.5500000000  0.4500000000
 cg2d: Sum(rhs),rhsMax =   8.56203996590921E-13  2.24068854768716E-03
(PID.TID 0000.0001)      cg2d_init_res =   6.56200689952835E-01
(PID.TID 0000.0001)      cg2d_iters(min,last) =      -1      34
(PID.TID 0000.0001)      cg2d_last_res =   7.09973109042021E-08
(PID.TID 0000.0001) // =======================================================
(PID.TID 0000.0001) // Begin MONITOR dynamic field statistics
(PID.TID 0000.0001) // =======================================================
(PID.TID 0000.0001) %MON time_tsnumber                =                   440
(PID.TID 0000.0001) %MON time_secondsf                =   2.6400000000000E+04
(PID.TID 0000.0001) %MON dynstat_eta_max              =   2.3867475325145E-02
(PID.TID 0000.0001) %MON dynstat_eta_min              =  -1.5624553357012E-02
(PID.TID 0000.0001) %MON dynstat_eta_mean             =   1.0397506632542E-19
(PID.TID 0000.0001) %MON dynstat_eta_sd               =   8.9461599884754E-04
(PID.TID 0000.0001) %MON dynstat_eta_del2             =   5.5852448972491E-07
(PID.TID 0000.0001) %MON dynstat_uvel_max             =   8.0352579382258E-02
(PID.TID 0000.0001) %MON dynstat_uvel_min             =  -8.1458631543992E-02
(PID.TID 0000.0001) %MON dynstat_uvel_mean            =  -5.8668527665605E-05
(PID.TID 0000.0001) %MON dynstat_uvel_sd              =   2.2234622970321E-03
(PID.TID 0000.0001) %MON dynstat_uvel_del2            =   6.5390012724858E-07
(PID.TID 0000.0001) %MON dynstat_vvel_max             =   1.0086149373836E-01
(PID.TID 0000.0001) %MON dynstat_vvel_min             =  -4.8460204590414E-02
(PID.TID 0000.0001) %MON dynstat_vvel_mean            =  -3.1196634532170E-05
(PID.TID 0000.0001) %MON dynstat_vvel_sd              =   3.1526538050619E-03
(PID.TID 0000.0001) %MON dynstat_vvel_del2            =   6.5726617010275E-07
(PID.TID 0000.0001) %MON dynstat_wvel_max             =   7.1870005556582E-05
(PID.TID 0000.0001) %MON dynstat_wvel_min             =  -1.4700712383852E-04
(PID.TID 0000.0001) %MON dynstat_wvel_mean            =  -1.5616315076158E-07
(PID.TID 0000.0001) %MON dynstat_wvel_sd              =   1.4801476315515E-06
(PID.TID 0000.0001) %MON dynstat_wvel_del2            =   2.9259426547773E-09
(PID.TID 0000.0001) %MON dynstat_theta_max            =   1.6581175175620E+01
(PID.TID 0000.0001) %MON dynstat_theta_min            =   4.2491029890311E+00
(PID.TID 0000.0001) %MON dynstat_theta_mean           =   7.6151886292645E+00
(PID.TID 0000.0001) %MON dynstat_theta_sd             =   3.6062199991906E+00
(PID.TID 0000.0001) %MON dynstat_theta_del2           =   2.2849043358397E-07
(PID.TID 0000.0001) %MON dynstat_salt_max             =   3.4471498101518E+01
(PID.TID 0000.0001) %MON dynstat_salt_min             =   3.3629958760012E+01
(PID.TID 0000.0001) %MON dynstat_salt_mean            =   3.4187264700032E+01
(PID.TID 0000.0001) %MON dynstat_salt_sd              =   2.7103807058160E-01
(PID.TID 0000.0001) %MON dynstat_salt_del2            =   8.8865217424315E-09
(PID.TID 0000.0001) %MON trAdv_CFL_u_max              =   2.4546206453464E-03
(PID.TID 0000.0001) %MON trAdv_CFL_v_max              =   3.0048210143938E-03
(PID.TID 0000.0001) %MON trAdv_CFL_w_max              =   2.4942577518864E-03
(PID.TID 0000.0001) %MON advcfl_uvel_max              =   2.4334775038659E-03
(PID.TID 0000.0001) %MON advcfl_vvel_max              =   3.0116898697629E-03
(PID.TID 0000.0001) %MON advcfl_wvel_max              =   2.3128403117760E-03
(PID.TID 0000.0001) %MON advcfl_W_hf_max              =   2.4863033351592E-03
(PID.TID 0000.0001) %MON pe_b_mean                    =   4.1956127101201E-09
(PID.TID 0000.0001) %MON ke_max                       =   5.1537654298312E-03
(PID.TID 0000.0001) %MON ke_mean                      =   7.4304044026640E-06
(PID.TID 0000.0001) %MON ke_vol                       =   8.2760855027014E+14
(PID.TID 0000.0001) %MON vort_r_min                   =  -6.0717319707171E-05
(PID.TID 0000.0001) %MON vort_r_max                   =   8.8866265445677E-05
(PID.TID 0000.0001) %MON vort_a_mean                  =   6.9582958995909E-04
(PID.TID 0000.0001) %MON vort_a_sd                    =   1.4271448507241E-06
(PID.TID 0000.0001) %MON vort_p_mean                  =   7.0012686801198E-04
(PID.TID 0000.0001) %MON vort_p_sd                    =   9.4514541875738E-05
(PID.TID 0000.0001) %MON surfExpan_theta_mean         =  -1.8431965167870E-12
(PID.TID 0000.0001) %MON surfExpan_salt_mean          =  -1.0117826865528E-21
(PID.TID 0000.0001) // =======================================================
(PID.TID 0000.0001) // End MONITOR dynamic field statistics
(PID.TID 0000.0001) // =======================================================
(PID.TID 0000.0001) // =======================================================
(PID.TID 0000.0001) // Begin OBCS MONITOR field statistics
(PID.TID 0000.0001) // =======================================================
(PID.TID 0000.0001) %MON obc_S_vVel_max               =   7.9973134829732E-02
(PID.TID 0000.0001) %MON obc_S_vVel_min               =  -3.9366540697520E-04
(PID.TID 0000.0001) %MON obc_S_vVel_mean              =   4.6599551857624E-20
(PID.TID 0000.0001) %MON obc_S_vVel_sd                =   3.5827965391875E-03
(PID.TID 0000.0001) %MON obc_S_vVel_Int               =   7.9126039054245E-11
(PID.TID 0000.0001) // =======================================================
(PID.TID 0000.0001) // End OBCS MONITOR field statistics
(PID.TID 0000.0001) // =======================================================
 EXTERNAL_FIELDS_LOAD,       440 : iP,iLd,i0,i1=   22   23   22   23 ; Wght=  0.5000000000  0.5000000000
 cg2d: Sum(rhs),rhsMax =   5.41788836017076E-14  2.30093403756595E-03
 EXTERNAL_FIELDS_LOAD,       441 : iP,iLd,i0,i1=   22   23   22   23 ; Wght=  0.4500000000  0.5500000000
 cg2d: Sum(rhs),rhsMax =   1.27009514017118E-13  2.35342376542676E-03
 EXTERNAL_FIELDS_LOAD,       442 : iP,iLd,i0,i1=   22   23   22   23 ; Wght=  0.4000000000  0.6000000000
 cg2d: Sum(rhs),rhsMax =  -6.99884594723699E-13  2.39748914543295E-03
 EXTERNAL_FIELDS_LOAD,       443 : iP,iLd,i0,i1=   22   23   22   23 ; Wght=  0.3500000000  0.6500000000
 cg2d: Sum(rhs),rhsMax =   1.50990331349021E-13  2.43249857663322E-03
 EXTERNAL_FIELDS_LOAD,       444 : iP,iLd,i0,i1=   22   23   22   23 ; Wght=  0.3000000000  0.7000000000
 cg2d: Sum(rhs),rhsMax =   9.76996261670138E-15  2.45786923109416E-03
 EXTERNAL_FIELDS_LOAD,       445 : iP,iLd,i0,i1=   22   23   22   23 ; Wght=  0.2500000000  0.7500000000
 cg2d: Sum(rhs),rhsMax =   3.25073301610246E-13  2.47307791789238E-03
 EXTERNAL_FIELDS_LOAD,       446 : iP,iLd,i0,i1=   22   23   22   23 ; Wght=  0.2000000000  0.8000000000
 cg2d: Sum(rhs),rhsMax =   3.53495011040650E-13  2.47767083798353E-03
 EXTERNAL_FIELDS_LOAD,       447 : iP,iLd,i0,i1=   22   23   22   23 ; Wght=  0.1500000000  0.8500000000
 cg2d: Sum(rhs),rhsMax =   2.24709140184132E-13  2.49103371982323E-03
 EXTERNAL_FIELDS_LOAD,       448 : iP,iLd,i0,i1=   22   23   22   23 ; Wght=  0.1000000000  0.9000000000
 cg2d: Sum(rhs),rhsMax =   1.57651669496772E-13  2.56028843330017E-03
 EXTERNAL_FIELDS_LOAD,       449 : iP,iLd,i0,i1=   22   23   22   23 ; Wght=  0.0500000000  0.9500000000
 cg2d: Sum(rhs),rhsMax =   8.53539461331820E-13  2.61681182897897E-03
 EXTERNAL_FIELDS_LOAD,       450 : iP,iLd,i0,i1=   22   23   23   24 ; Wght=  1.0000000000  0.0000000000
 EXTERNAL_FIELDS_LOAD, it=       450 : Reading new data, i0,i1=   23   24 (prev=   22   23 )
(PID.TID 0000.0001)  MDS_READ_FIELD: opening global file: ../input/merid_halfgauss2p5hr_272x320.bin
(PID.TID 0000.0001)  MDS_READ_FIELD: opening global file: ../input/merid_halfgauss2p5hr_272x320.bin
 cg2d: Sum(rhs),rhsMax =   4.25881552246210E-13  2.66022558641420E-03
 EXTERNAL_FIELDS_LOAD,       451 : iP,iLd,i0,i1=   23   24   23   24 ; Wght=  0.9500000000  0.0500000000
 cg2d: Sum(rhs),rhsMax =   1.42108547152020E-13  2.69026539454291E-03
 EXTERNAL_FIELDS_LOAD,       452 : iP,iLd,i0,i1=   23   24   23   24 ; Wght=  0.9000000000  0.1000000000
 cg2d: Sum(rhs),rhsMax =   4.99600361081320E-13  2.70678274514839E-03
 EXTERNAL_FIELDS_LOAD,       453 : iP,iLd,i0,i1=   23   24   23   24 ; Wght=  0.8500000000  0.1500000000
 cg2d: Sum(rhs),rhsMax =   8.12683254025615E-14  2.70974490263528E-03
 EXTERNAL_FIELDS_LOAD,       454 : iP,iLd,i0,i1=   23   24   23   24 ; Wght=  0.8000000000  0.2000000000
 cg2d: Sum(rhs),rhsMax =   7.52731210695856E-13  2.69923310572032E-03
 EXTERNAL_FIELDS_LOAD,       455 : iP,iLd,i0,i1=   23   24   23   24 ; Wght=  0.7500000000  0.2500000000
 cg2d: Sum(rhs),rhsMax =   1.53210777398272E-13  2.67543908864478E-03
 EXTERNAL_FIELDS_LOAD,       456 : iP,iLd,i0,i1=   23   24   23   24 ; Wght=  0.7000000000  0.3000000000
 cg2d: Sum(rhs),rhsMax =   6.52367049269742E-13  2.63866003898627E-03
 EXTERNAL_FIELDS_LOAD,       457 : iP,iLd,i0,i1=   23   24   23   24 ; Wght=  0.6500000000  0.3500000000
 cg2d: Sum(rhs),rhsMax =   3.69038133385402E-13  2.58929213539661E-03
 EXTERNAL_FIELDS_LOAD,       458 : iP,iLd,i0,i1=   23   24   23   24 ; Wght=  0.6000000000  0.4000000000
 cg2d: Sum(rhs),rhsMax =  -2.95097279945367E-13  2.52782283197411E-03
 EXTERNAL_FIELDS_LOAD,       459 : iP,iLd,i0,i1=   23   24   23   24 ; Wght=  0.5500000000  0.4500000000
 cg2d: Sum(rhs),rhsMax =   2.33146835171283E-14  2.45482207415205E-03
(PID.TID 0000.0001)      cg2d_init_res =   8.25660002365731E-01
(PID.TID 0000.0001)      cg2d_iters(min,last) =      -1      34
(PID.TID 0000.0001)      cg2d_last_res =   7.80751953735198E-08
(PID.TID 0000.0001) // =======================================================
(PID.TID 0000.0001) // Begin MONITOR dynamic field statistics
(PID.TID 0000.0001) // =======================================================
(PID.TID 0000.0001) %MON time_tsnumber                =                   460
(PID.TID 0000.0001) %MON time_secondsf                =   2.7600000000000E+04
(PID.TID 0000.0001) %MON dynstat_eta_max              =   2.0123104552521E-02
(PID.TID 0000.0001) %MON dynstat_eta_min              =  -2.3018201684368E-02
(PID.TID 0000.0001) %MON dynstat_eta_mean             =  -2.0387009840264E-19
(PID.TID 0000.0001) %MON dynstat_eta_sd               =   8.4246307104638E-04
(PID.TID 0000.0001) %MON dynstat_eta_del2             =   5.6220358251228E-07
(PID.TID 0000.0001) %MON dynstat_uvel_max             =   9.8216039227550E-02
(PID.TID 0000.0001) %MON dynstat_uvel_min             =  -8.3278966268114E-02
(PID.TID 0000.0001) %MON dynstat_uvel_mean            =  -4.8741838957827E-05
(PID.TID 0000.0001) %MON dynstat_uvel_sd              =   3.8094643803449E-03
(PID.TID 0000.0001) %MON dynstat_uvel_del2            =   6.2376022168437E-07
(PID.TID 0000.0001) %MON dynstat_vvel_max             =   1.0069850759786E-01
(PID.TID 0000.0001) %MON dynstat_vvel_min             =  -3.1314385812152E-02
(PID.TID 0000.0001) %MON dynstat_vvel_mean            =   5.2198180471065E-05
(PID.TID 0000.0001) %MON dynstat_vvel_sd              =   5.0873470144455E-04
(PID.TID 0000.0001) %MON dynstat_vvel_del2            =   6.0573804982820E-07
(PID.TID 0000.0001) %MON dynstat_wvel_max             =   7.8262001633922E-05
(PID.TID 0000.0001) %MON dynstat_wvel_min             =  -1.3017719510048E-04
(PID.TID 0000.0001) %MON dynstat_wvel_mean            =  -5.3594829802850E-08
(PID.TID 0000.0001) %MON dynstat_wvel_sd              =   1.1254260404550E-06
(PID.TID 0000.0001) %MON dynstat_wvel_del2            =   2.8676487082175E-09
(PID.TID 0000.0001) %MON dynstat_theta_max            =   1.6581098396372E+01
(PID.TID 0000.0001) %MON dynstat_theta_min            =   4.2491093559030E+00
(PID.TID 0000.0001) %MON dynstat_theta_mean           =   7.6151908667279E+00
(PID.TID 0000.0001) %MON dynstat_theta_sd             =   3.6062211074716E+00
(PID.TID 0000.0001) %MON dynstat_theta_del2           =   2.3163301992708E-07
(PID.TID 0000.0001) %MON dynstat_salt_max             =   3.4471497385369E+01
(PID.TID 0000.0001) %MON dynstat_salt_min             =   3.3629956053360E+01
(PID.TID 0000.0001) %MON dynstat_salt_mean            =   3.4187264562491E+01
(PID.TID 0000.0001) %MON dynstat_salt_sd              =   2.7103811631910E-01
(PID.TID 0000.0001) %MON dynstat_salt_del2            =   9.1422824368092E-09
(PID.TID 0000.0001) %MON trAdv_CFL_u_max              =   2.9114759432797E-03
(PID.TID 0000.0001) %MON trAdv_CFL_v_max              =   3.0119462830813E-03
(PID.TID 0000.0001) %MON trAdv_CFL_w_max              =   2.3299196573703E-03
(PID.TID 0000.0001) %MON advcfl_uvel_max              =   2.9341577144259E-03
(PID.TID 0000.0001) %MON advcfl_vvel_max              =   3.0068231590882E-03
(PID.TID 0000.0001) %MON advcfl_wvel_max              =   2.1845279643359E-03
(PID.TID 0000.0001) %MON advcfl_W_hf_max              =   2.3483675616611E-03
(PID.TID 0000.0001) %MON pe_b_mean                    =   3.7206928263098E-09
(PID.TID 0000.0001) %MON ke_max                       =   6.5097135984718E-03
(PID.TID 0000.0001) %MON ke_mean                      =   7.3863600591167E-06
(PID.TID 0000.0001) %MON ke_vol                       =   8.2760855027014E+14
(PID.TID 0000.0001) %MON vort_r_min                   =  -5.6037679113194E-05
(PID.TID 0000.0001) %MON vort_r_max                   =   9.7777536183229E-05
(PID.TID 0000.0001) %MON vort_a_mean                  =   6.9582958995909E-04
(PID.TID 0000.0001) %MON vort_a_sd                    =   1.4319179488286E-06
(PID.TID 0000.0001) %MON vort_p_mean                  =   7.0012686801198E-04
(PID.TID 0000.0001) %MON vort_p_sd                    =   9.4509567202530E-05
(PID.TID 0000.0001) %MON surfExpan_theta_mean         =   5.2023387891680E-13
(PID.TID 0000.0001) %MON surfExpan_salt_mean          =   2.0688076883579E-21
(PID.TID 0000.0001) // =======================================================
(PID.TID 0000.0001) // End MONITOR dynamic field statistics
(PID.TID 0000.0001) // =======================================================
(PID.TID 0000.0001) // =======================================================
(PID.TID 0000.0001) // Begin OBCS MONITOR field statistics
(PID.TID 0000.0001) // =======================================================
(PID.TID 0000.0001) %MON obc_S_vVel_max               =   2.5772372255212E-02
(PID.TID 0000.0001) %MON obc_S_vVel_min               =  -1.6809660878414E-04
(PID.TID 0000.0001) %MON obc_S_vVel_mean              =   2.2362428621331E-20
(PID.TID 0000.0001) %MON obc_S_vVel_sd                =   1.1550518926903E-03
(PID.TID 0000.0001) %MON obc_S_vVel_Int               =   3.7971403799020E-11
(PID.TID 0000.0001) // =======================================================
(PID.TID 0000.0001) // End OBCS MONITOR field statistics
(PID.TID 0000.0001) // =======================================================
 EXTERNAL_FIELDS_LOAD,       460 : iP,iLd,i0,i1=   23   24   23   24 ; Wght=  0.5000000000  0.5000000000
 cg2d: Sum(rhs),rhsMax =   3.93574062229618E-13  2.37093264639659E-03
 EXTERNAL_FIELDS_LOAD,       461 : iP,iLd,i0,i1=   23   24   23   24 ; Wght=  0.4500000000  0.5500000000
 cg2d: Sum(rhs),rhsMax =   5.44897460486027E-13  2.27685986205669E-03
 EXTERNAL_FIELDS_LOAD,       462 : iP,iLd,i0,i1=   23   24   23   24 ; Wght=  0.4000000000  0.6000000000
 cg2d: Sum(rhs),rhsMax =   4.03566069451244E-13  2.17336081147529E-03
 EXTERNAL_FIELDS_LOAD,       463 : iP,iLd,i0,i1=   23   24   23   24 ; Wght=  0.3500000000  0.6500000000
 cg2d: Sum(rhs),rhsMax =   1.72528658026749E-13  2.10872878685996E-03
 EXTERNAL_FIELDS_LOAD,       464 : iP,iLd,i0,i1=   23   24   23   24 ; Wght=  0.3000000000  0.7000000000
 cg2d: Sum(rhs),rhsMax =   1.84435799965854E-13  2.07623966784774E-03
 EXTERNAL_FIELDS_LOAD,       465 : iP,iLd,i0,i1=   23   24   23   24 ; Wght=  0.2500000000  0.7500000000
 cg2d: Sum(rhs),rhsMax =  -1.37098665753399E-13  2.03658129615753E-03
 EXTERNAL_FIELDS_LOAD,       466 : iP,iLd,i0,i1=   23   24   23   24 ; Wght=  0.2000000000  0.8000000000
 cg2d: Sum(rhs),rhsMax =   6.44206910038747E-14  1.99035245387329E-03
 EXTERNAL_FIELDS_LOAD,       467 : iP,iLd,i0,i1=   23   24   23   24 ; Wght=  0.1500000000  0.8500000000
 cg2d: Sum(rhs),rhsMax =   1.57263091438153E-13  1.93814811171910E-03
 EXTERNAL_FIELDS_LOAD,       468 : iP,iLd,i0,i1=   23   24   23   24 ; Wght=  0.1000000000  0.9000000000
 cg2d: Sum(rhs),rhsMax =   3.39728245535298E-14  1.94744308419772E-03
 EXTERNAL_FIELDS_LOAD,       469 : iP,iLd,i0,i1=   23   24   23   24 ; Wght=  0.0500000000  0.9500000000
 cg2d: Sum(rhs),rhsMax =   5.32351940307763E-13  1.99253433367233E-03
 EXTERNAL_FIELDS_LOAD,       470 : iP,iLd,i0,i1=   23   24   24   25 ; Wght=  1.0000000000  0.0000000000
 EXTERNAL_FIELDS_LOAD, it=       470 : Reading new data, i0,i1=   24   25 (prev=   23   24 )
(PID.TID 0000.0001)  MDS_READ_FIELD: opening global file: ../input/merid_halfgauss2p5hr_272x320.bin
(PID.TID 0000.0001)  MDS_READ_FIELD: opening global file: ../input/merid_halfgauss2p5hr_272x320.bin
 cg2d: Sum(rhs),rhsMax =   1.94289029309402E-13  2.09808045058291E-03
 EXTERNAL_FIELDS_LOAD,       471 : iP,iLd,i0,i1=   24   25   24   25 ; Wght=  0.9500000000  0.0500000000
 cg2d: Sum(rhs),rhsMax =   4.50750547997814E-14  2.19687466687171E-03
 EXTERNAL_FIELDS_LOAD,       472 : iP,iLd,i0,i1=   24   25   24   25 ; Wght=  0.9000000000  0.1000000000
 cg2d: Sum(rhs),rhsMax =   7.76045894212984E-14  2.28848561563691E-03
 EXTERNAL_FIELDS_LOAD,       473 : iP,iLd,i0,i1=   24   25   24   25 ; Wght=  0.8500000000  0.1500000000
 cg2d: Sum(rhs),rhsMax =   1.71196390397199E-13  2.37251751358260E-03
 EXTERNAL_FIELDS_LOAD,       474 : iP,iLd,i0,i1=   24   25   24   25 ; Wght=  0.8000000000  0.2000000000
 cg2d: Sum(rhs),rhsMax =   9.27036225562006E-14  2.44861262106393E-03
 EXTERNAL_FIELDS_LOAD,       475 : iP,iLd,i0,i1=   24   25   24   25 ; Wght=  0.7500000000  0.2500000000
 cg2d: Sum(rhs),rhsMax =   1.79523063081888E-13  2.51645340952655E-03
 EXTERNAL_FIELDS_LOAD,       476 : iP,iLd,i0,i1=   24   25   24   25 ; Wght=  0.7000000000  0.3000000000
 cg2d: Sum(rhs),rhsMax =   1.22901688826005E-13  2.57576442127339E-03
 EXTERNAL_FIELDS_LOAD,       477 : iP,iLd,i0,i1=   24   25   24   25 ; Wght=  0.6500000000  0.3500000000
 cg2d: Sum(rhs),rhsMax =   2.10498285468930E-13  2.62631381412990E-03
 EXTERNAL_FIELDS_LOAD,       478 : iP,iLd,i0,i1=   24   25   24   25 ; Wght=  0.6000000000  0.4000000000
 cg2d: Sum(rhs),rhsMax =   1.88515869581352E-13  2.66791457185549E-03
 EXTERNAL_FIELDS_LOAD,       479 : iP,iLd,i0,i1=   24   25   24   25 ; Wght=  0.5500000000  0.4500000000
 cg2d: Sum(rhs),rhsMax =   3.04201108747293E-13  2.70042538289583E-03
(PID.TID 0000.0001)      cg2d_init_res =   7.27179763591495E-01
(PID.TID 0000.0001)      cg2d_iters(min,last) =      -1      34
(PID.TID 0000.0001)      cg2d_last_res =   8.44591561172817E-08
(PID.TID 0000.0001) // =======================================================
(PID.TID 0000.0001) // Begin MONITOR dynamic field statistics
(PID.TID 0000.0001) // =======================================================
(PID.TID 0000.0001) %MON time_tsnumber                =                   480
(PID.TID 0000.0001) %MON time_secondsf                =   2.8800000000000E+04
(PID.TID 0000.0001) %MON dynstat_eta_max              =   2.0639878149255E-02
(PID.TID 0000.0001) %MON dynstat_eta_min              =  -2.3207878128347E-02
(PID.TID 0000.0001) %MON dynstat_eta_mean             =  -3.2377045969689E-20
(PID.TID 0000.0001) %MON dynstat_eta_sd               =   7.6035979092344E-04
(PID.TID 0000.0001) %MON dynstat_eta_del2             =   5.4431741634661E-07
(PID.TID 0000.0001) %MON dynstat_uvel_max             =   1.1028896920692E-01
(PID.TID 0000.0001) %MON dynstat_uvel_min             =  -7.3463838186573E-02
(PID.TID 0000.0001) %MON dynstat_uvel_mean            =   1.1364304204079E-05
(PID.TID 0000.0001) %MON dynstat_uvel_sd              =   2.8953159281410E-03
(PID.TID 0000.0001) %MON dynstat_uvel_del2            =   5.9247885045971E-07
(PID.TID 0000.0001) %MON dynstat_vvel_max             =   1.0946985881990E-01
(PID.TID 0000.0001) %MON dynstat_vvel_min             =  -7.2681561008463E-02
(PID.TID 0000.0001) %MON dynstat_vvel_mean            =   7.5354550378251E-05
(PID.TID 0000.0001) %MON dynstat_vvel_sd              =   2.5107264928601E-03
(PID.TID 0000.0001) %MON dynstat_vvel_del2            =   5.5451935969927E-07
(PID.TID 0000.0001) %MON dynstat_wvel_max             =   1.0199040891370E-04
(PID.TID 0000.0001) %MON dynstat_wvel_min             =  -1.0573442173244E-04
(PID.TID 0000.0001) %MON dynstat_wvel_mean            =   8.4005808076479E-08
(PID.TID 0000.0001) %MON dynstat_wvel_sd              =   1.4821418464727E-06
(PID.TID 0000.0001) %MON dynstat_wvel_del2            =   2.7889020786957E-09
(PID.TID 0000.0001) %MON dynstat_theta_max            =   1.6581055552220E+01
(PID.TID 0000.0001) %MON dynstat_theta_min            =   4.2491069336255E+00
(PID.TID 0000.0001) %MON dynstat_theta_mean           =   7.6151904664635E+00
(PID.TID 0000.0001) %MON dynstat_theta_sd             =   3.6062193582496E+00
(PID.TID 0000.0001) %MON dynstat_theta_del2           =   2.3283981402955E-07
(PID.TID 0000.0001) %MON dynstat_salt_max             =   3.4471497657776E+01
(PID.TID 0000.0001) %MON dynstat_salt_min             =   3.3629957345959E+01
(PID.TID 0000.0001) %MON dynstat_salt_mean            =   3.4187264585053E+01
(PID.TID 0000.0001) %MON dynstat_salt_sd              =   2.7103803241380E-01
(PID.TID 0000.0001) %MON dynstat_salt_del2            =   9.2701289955639E-09
(PID.TID 0000.0001) %MON trAdv_CFL_u_max              =   3.2767589716833E-03
(PID.TID 0000.0001) %MON trAdv_CFL_v_max              =   3.2486309134603E-03
(PID.TID 0000.0001) %MON trAdv_CFL_w_max              =   2.6258583263859E-03
(PID.TID 0000.0001) %MON advcfl_uvel_max              =   3.2948307869027E-03
(PID.TID 0000.0001) %MON advcfl_vvel_max              =   3.2687327208092E-03
(PID.TID 0000.0001) %MON advcfl_wvel_max              =   2.8462439696846E-03
(PID.TID 0000.0001) %MON advcfl_W_hf_max              =   3.0597122674109E-03
(PID.TID 0000.0001) %MON pe_b_mean                    =   3.0308214789782E-09
(PID.TID 0000.0001) %MON ke_max                       =   7.2421559072436E-03
(PID.TID 0000.0001) %MON ke_mean                      =   7.3418342431608E-06
(PID.TID 0000.0001) %MON ke_vol                       =   8.2760855027014E+14
(PID.TID 0000.0001) %MON vort_r_min                   =  -4.3941814946467E-05
(PID.TID 0000.0001) %MON vort_r_max                   =   1.0186236945552E-04
(PID.TID 0000.0001) %MON vort_a_mean                  =   6.9582958995909E-04
(PID.TID 0000.0001) %MON vort_a_sd                    =   1.4312109150392E-06
(PID.TID 0000.0001) %MON vort_p_mean                  =   7.0012686801198E-04
(PID.TID 0000.0001) %MON vort_p_sd                    =   9.4509048977500E-05
(PID.TID 0000.0001) %MON surfExpan_theta_mean         =   7.2360915295801E-13
(PID.TID 0000.0001) %MON surfExpan_salt_mean          =   3.3746654240511E-21
(PID.TID 0000.0001) // =======================================================
(PID.TID 0000.0001) // End MONITOR dynamic field statistics
(PID.TID 0000.0001) // =======================================================
(PID.TID 0000.0001) // =======================================================
(PID.TID 0000.0001) // Begin OBCS MONITOR field statistics
(PID.TID 0000.0001) // =======================================================
(PID.TID 0000.0001) %MON obc_S_vVel_max               =   1.9303181918308E-04
(PID.TID 0000.0001) %MON obc_S_vVel_min               =  -4.5254150910299E-02
(PID.TID 0000.0001) %MON obc_S_vVel_mean              =  -3.0601878837536E-20
(PID.TID 0000.0001) %MON obc_S_vVel_sd                =   2.0276743828921E-03
(PID.TID 0000.0001) %MON obc_S_vVel_Int               =  -5.1961990266136E-11
(PID.TID 0000.0001) // =======================================================
(PID.TID 0000.0001) // End OBCS MONITOR field statistics
(PID.TID 0000.0001) // =======================================================
 EXTERNAL_FIELDS_LOAD,       480 : iP,iLd,i0,i1=   24   25   24   25 ; Wght=  0.5000000000  0.5000000000
 cg2d: Sum(rhs),rhsMax =   1.88959958791202E-13  2.72375117858187E-03
 EXTERNAL_FIELDS_LOAD,       481 : iP,iLd,i0,i1=   24   25   24   25 ; Wght=  0.4500000000  0.5500000000
 cg2d: Sum(rhs),rhsMax =   1.11688436277291E-13  2.73784332988191E-03
 EXTERNAL_FIELDS_LOAD,       482 : iP,iLd,i0,i1=   24   25   24   25 ; Wght=  0.4000000000  0.6000000000
 cg2d: Sum(rhs),rhsMax =   1.22568621918617E-13  2.74269950444118E-03
 EXTERNAL_FIELDS_LOAD,       483 : iP,iLd,i0,i1=   24   25   24   25 ; Wght=  0.3500000000  0.6500000000
 cg2d: Sum(rhs),rhsMax =   3.41282557769773E-13  2.73836318925848E-03
 EXTERNAL_FIELDS_LOAD,       484 : iP,iLd,i0,i1=   24   25   24   25 ; Wght=  0.3000000000  0.7000000000
 cg2d: Sum(rhs),rhsMax =   2.14050999147730E-13  2.72492288810970E-03
 EXTERNAL_FIELDS_LOAD,       485 : iP,iLd,i0,i1=   24   25   24   25 ; Wght=  0.2500000000  0.7500000000
 cg2d: Sum(rhs),rhsMax =   2.20046203480706E-13  2.78062355165181E-03
 EXTERNAL_FIELDS_LOAD,       486 : iP,iLd,i0,i1=   24   25   24   25 ; Wght=  0.2000000000  0.8000000000
 cg2d: Sum(rhs),rhsMax =   1.40332190312620E-13  2.83101420426449E-03
 EXTERNAL_FIELDS_LOAD,       487 : iP,iLd,i0,i1=   24   25   24   25 ; Wght=  0.1500000000  0.8500000000
 cg2d: Sum(rhs),rhsMax =  -7.54951656745106E-14  2.87173289231198E-03
 EXTERNAL_FIELDS_LOAD,       488 : iP,iLd,i0,i1=   24   25   24   25 ; Wght=  0.1000000000  0.9000000000
 cg2d: Sum(rhs),rhsMax =   2.84661183513890E-13  2.90266723184088E-03
 EXTERNAL_FIELDS_LOAD,       489 : iP,iLd,i0,i1=   24   25   24   25 ; Wght=  0.0500000000  0.9500000000
 cg2d: Sum(rhs),rhsMax =   1.51878509768721E-13  2.92375117784836E-03
 EXTERNAL_FIELDS_LOAD,       490 : iP,iLd,i0,i1=   24   25   25   26 ; Wght=  1.0000000000  0.0000000000
 EXTERNAL_FIELDS_LOAD, it=       490 : Reading new data, i0,i1=   25   26 (prev=   24   25 )
(PID.TID 0000.0001)  MDS_READ_FIELD: opening global file: ../input/merid_halfgauss2p5hr_272x320.bin
(PID.TID 0000.0001)  MDS_READ_FIELD: opening global file: ../input/merid_halfgauss2p5hr_272x320.bin
 cg2d: Sum(rhs),rhsMax =  -1.85185200507476E-13  2.93860431305327E-03
 EXTERNAL_FIELDS_LOAD,       491 : iP,iLd,i0,i1=   25   26   25   26 ; Wght=  0.9500000000  0.0500000000
 cg2d: Sum(rhs),rhsMax =   2.09832151654155E-13  2.94554782388909E-03
 EXTERNAL_FIELDS_LOAD,       492 : iP,iLd,i0,i1=   25   26   25   26 ; Wght=  0.9000000000  0.1000000000
 cg2d: Sum(rhs),rhsMax =   9.37028232783632E-14  2.94233874017580E-03
 EXTERNAL_FIELDS_LOAD,       493 : iP,iLd,i0,i1=   25   26   25   26 ; Wght=  0.8500000000  0.1500000000
 cg2d: Sum(rhs),rhsMax =   3.96349619791181E-13  2.92906111724513E-03
 EXTERNAL_FIELDS_LOAD,       494 : iP,iLd,i0,i1=   25   26   25   26 ; Wght=  0.8000000000  0.2000000000
 cg2d: Sum(rhs),rhsMax =  -4.17443857259059E-14  2.90584208786054E-03
 EXTERNAL_FIELDS_LOAD,       495 : iP,iLd,i0,i1=   25   26   25   26 ; Wght=  0.7500000000  0.2500000000
 cg2d: Sum(rhs),rhsMax =   9.83657599817889E-14  2.87285126210622E-03
 EXTERNAL_FIELDS_LOAD,       496 : iP,iLd,i0,i1=   25   26   25   26 ; Wght=  0.7000000000  0.3000000000
 cg2d: Sum(rhs),rhsMax =   2.79776202205539E-14  2.83029998850227E-03
 EXTERNAL_FIELDS_LOAD,       497 : iP,iLd,i0,i1=   25   26   25   26 ; Wght=  0.6500000000  0.3500000000
 cg2d: Sum(rhs),rhsMax =   1.26121335597418E-13  2.77844046871560E-03
 EXTERNAL_FIELDS_LOAD,       498 : iP,iLd,i0,i1=   25   26   25   26 ; Wght=  0.6000000000  0.4000000000
 cg2d: Sum(rhs),rhsMax =   1.21680443498917E-13  2.71756471647885E-03
 EXTERNAL_FIELDS_LOAD,       499 : iP,iLd,i0,i1=   25   26   25   26 ; Wght=  0.5500000000  0.4500000000
 cg2d: Sum(rhs),rhsMax =   5.61328761250479E-13  2.64800334986080E-03
(PID.TID 0000.0001)      cg2d_init_res =   4.83752869853512E-01
(PID.TID 0000.0001)      cg2d_iters(min,last) =      -1      33
(PID.TID 0000.0001)      cg2d_last_res =   9.67847507663514E-08
(PID.TID 0000.0001) // =======================================================
(PID.TID 0000.0001) // Begin MONITOR dynamic field statistics
(PID.TID 0000.0001) // =======================================================
(PID.TID 0000.0001) %MON time_tsnumber                =                   500
(PID.TID 0000.0001) %MON time_secondsf                =   3.0000000000000E+04
(PID.TID 0000.0001) %MON dynstat_eta_max              =   2.0163756106312E-02
(PID.TID 0000.0001) %MON dynstat_eta_min              =  -2.0498420940866E-02
(PID.TID 0000.0001) %MON dynstat_eta_mean             =  -2.0406751941465E-19
(PID.TID 0000.0001) %MON dynstat_eta_sd               =   8.7627011531339E-04
(PID.TID 0000.0001) %MON dynstat_eta_del2             =   4.9430353727252E-07
(PID.TID 0000.0001) %MON dynstat_uvel_max             =   1.1786919174333E-01
(PID.TID 0000.0001) %MON dynstat_uvel_min             =  -5.2477737447151E-02
(PID.TID 0000.0001) %MON dynstat_uvel_mean            =   5.3034941928655E-05
(PID.TID 0000.0001) %MON dynstat_uvel_sd              =   2.4169627962045E-04
(PID.TID 0000.0001) %MON dynstat_uvel_del2            =   5.4609160408288E-07
(PID.TID 0000.0001) %MON dynstat_vvel_max             =   1.1758250519367E-01
(PID.TID 0000.0001) %MON dynstat_vvel_min             =  -1.0303961529644E-01
(PID.TID 0000.0001) %MON dynstat_vvel_mean            =   1.4652976450352E-05
(PID.TID 0000.0001) %MON dynstat_vvel_sd              =   3.8157684530610E-03
(PID.TID 0000.0001) %MON dynstat_vvel_del2            =   5.2839970843087E-07
(PID.TID 0000.0001) %MON dynstat_wvel_max             =   1.2171482399140E-04
(PID.TID 0000.0001) %MON dynstat_wvel_min             =  -1.0037128441594E-04
(PID.TID 0000.0001) %MON dynstat_wvel_mean            =   1.6797902470023E-07
(PID.TID 0000.0001) %MON dynstat_wvel_sd              =   1.6232391409049E-06
(PID.TID 0000.0001) %MON dynstat_wvel_del2            =   2.7287206238862E-09
(PID.TID 0000.0001) %MON dynstat_theta_max            =   1.6580995018359E+01
(PID.TID 0000.0001) %MON dynstat_theta_min            =   4.2491001233399E+00
(PID.TID 0000.0001) %MON dynstat_theta_mean           =   7.6151876789632E+00
(PID.TID 0000.0001) %MON dynstat_theta_sd             =   3.6062150683792E+00
(PID.TID 0000.0001) %MON dynstat_theta_del2           =   2.3172339250874E-07
(PID.TID 0000.0001) %MON dynstat_salt_max             =   3.4471498423746E+01
(PID.TID 0000.0001) %MON dynstat_salt_min             =   3.3629960551268E+01
(PID.TID 0000.0001) %MON dynstat_salt_mean            =   3.4187264753794E+01
(PID.TID 0000.0001) %MON dynstat_salt_sd              =   2.7103783293977E-01
(PID.TID 0000.0001) %MON dynstat_salt_del2            =   9.3182473293386E-09
(PID.TID 0000.0001) %MON trAdv_CFL_u_max              =   3.5164567999728E-03
(PID.TID 0000.0001) %MON trAdv_CFL_v_max              =   3.8270734952485E-03
(PID.TID 0000.0001) %MON trAdv_CFL_w_max              =   3.1594786791408E-03
(PID.TID 0000.0001) %MON advcfl_uvel_max              =   3.5212863496313E-03
(PID.TID 0000.0001) %MON advcfl_vvel_max              =   3.5109735799840E-03
(PID.TID 0000.0001) %MON advcfl_wvel_max              =   3.3966927625508E-03
(PID.TID 0000.0001) %MON advcfl_W_hf_max              =   3.6514447197421E-03
(PID.TID 0000.0001) %MON pe_b_mean                    =   4.0252983230685E-09
(PID.TID 0000.0001) %MON ke_max                       =   9.0328221061722E-03
(PID.TID 0000.0001) %MON ke_mean                      =   7.2953319103383E-06
(PID.TID 0000.0001) %MON ke_vol                       =   8.2760855027014E+14
(PID.TID 0000.0001) %MON vort_r_min                   =  -4.8292464470335E-05
(PID.TID 0000.0001) %MON vort_r_max                   =   1.1235336153715E-04
(PID.TID 0000.0001) %MON vort_a_mean                  =   6.9582958995909E-04
(PID.TID 0000.0001) %MON vort_a_sd                    =   1.4266308639639E-06
(PID.TID 0000.0001) %MON vort_p_mean                  =   7.0012686801198E-04
(PID.TID 0000.0001) %MON vort_p_sd                    =   9.4512608521753E-05
(PID.TID 0000.0001) %MON surfExpan_theta_mean         =   4.5642262493935E-13
(PID.TID 0000.0001) %MON surfExpan_salt_mean          =  -3.6132158135635E-21
(PID.TID 0000.0001) // =======================================================
(PID.TID 0000.0001) // End MONITOR dynamic field statistics
(PID.TID 0000.0001) // =======================================================
(PID.TID 0000.0001) // =======================================================
(PID.TID 0000.0001) // Begin OBCS MONITOR field statistics
(PID.TID 0000.0001) // =======================================================
(PID.TID 0000.0001) %MON obc_S_vVel_max               =   4.0140208022004E-04
(PID.TID 0000.0001) %MON obc_S_vVel_min               =  -8.6340946319783E-02
(PID.TID 0000.0001) %MON obc_S_vVel_mean              =  -1.0993744849169E-19
(PID.TID 0000.0001) %MON obc_S_vVel_sd                =   3.8696981889400E-03
(PID.TID 0000.0001) %MON obc_S_vVel_Int               =  -1.8667378753889E-10
(PID.TID 0000.0001) // =======================================================
(PID.TID 0000.0001) // End OBCS MONITOR field statistics
(PID.TID 0000.0001) // =======================================================
 EXTERNAL_FIELDS_LOAD,       500 : iP,iLd,i0,i1=   25   26   25   26 ; Wght=  0.5000000000  0.5000000000
 cg2d: Sum(rhs),rhsMax =   6.11954931173386E-13  2.58437148708400E-03
 EXTERNAL_FIELDS_LOAD,       501 : iP,iLd,i0,i1=   25   26   25   26 ; Wght=  0.4500000000  0.5500000000
 cg2d: Sum(rhs),rhsMax =   4.26547686060985E-13  2.58908965639244E-03
 EXTERNAL_FIELDS_LOAD,       502 : iP,iLd,i0,i1=   25   26   25   26 ; Wght=  0.4000000000  0.6000000000
 cg2d: Sum(rhs),rhsMax =   2.85549361933590E-13  2.58650756393666E-03
 EXTERNAL_FIELDS_LOAD,       503 : iP,iLd,i0,i1=   25   26   25   26 ; Wght=  0.3500000000  0.6500000000
 cg2d: Sum(rhs),rhsMax =   5.40900657597376E-13  2.57666314594405E-03
 EXTERNAL_FIELDS_LOAD,       504 : iP,iLd,i0,i1=   25   26   25   26 ; Wght=  0.3000000000  0.7000000000
 cg2d: Sum(rhs),rhsMax =   3.09308134660569E-13  2.55961498419187E-03
 EXTERNAL_FIELDS_LOAD,       505 : iP,iLd,i0,i1=   25   26   25   26 ; Wght=  0.2500000000  0.7500000000
 cg2d: Sum(rhs),rhsMax =   7.64721619361808E-13  2.53544298021067E-03
 EXTERNAL_FIELDS_LOAD,       506 : iP,iLd,i0,i1=   25   26   25   26 ; Wght=  0.2000000000  0.8000000000
 cg2d: Sum(rhs),rhsMax =   5.07149877648772E-13  2.50424897500953E-03
 EXTERNAL_FIELDS_LOAD,       507 : iP,iLd,i0,i1=   25   26   25   26 ; Wght=  0.1500000000  0.8500000000
 cg2d: Sum(rhs),rhsMax =   5.50337553306690E-13  2.46615727844792E-03
 EXTERNAL_FIELDS_LOAD,       508 : iP,iLd,i0,i1=   25   26   25   26 ; Wght=  0.1000000000  0.9000000000
 cg2d: Sum(rhs),rhsMax =   2.24820162486594E-13  2.42131507545679E-03
 EXTERNAL_FIELDS_LOAD,       509 : iP,iLd,i0,i1=   25   26   25   26 ; Wght=  0.0500000000  0.9500000000
 cg2d: Sum(rhs),rhsMax =  -1.73194791841524E-13  2.36989267759862E-03
 EXTERNAL_FIELDS_LOAD,       510 : iP,iLd,i0,i1=   25   26   26   27 ; Wght=  1.0000000000  0.0000000000
 EXTERNAL_FIELDS_LOAD, it=       510 : Reading new data, i0,i1=   26   27 (prev=   25   26 )
(PID.TID 0000.0001)  MDS_READ_FIELD: opening global file: ../input/merid_halfgauss2p5hr_272x320.bin
(PID.TID 0000.0001)  MDS_READ_FIELD: opening global file: ../input/merid_halfgauss2p5hr_272x320.bin
 cg2d: Sum(rhs),rhsMax =   7.81708031638573E-13  2.31208359554012E-03
 EXTERNAL_FIELDS_LOAD,       511 : iP,iLd,i0,i1=   26   27   26   27 ; Wght=  0.9500000000  0.0500000000
 cg2d: Sum(rhs),rhsMax =  -1.85962356624714E-13  2.24810441147467E-03
 EXTERNAL_FIELDS_LOAD,       512 : iP,iLd,i0,i1=   26   27   26   27 ; Wght=  0.9000000000  0.1000000000
 cg2d: Sum(rhs),rhsMax =  -3.28570504137815E-13  2.17819443698754E-03
 EXTERNAL_FIELDS_LOAD,       513 : iP,iLd,i0,i1=   26   27   26   27 ; Wght=  0.8500000000  0.1500000000
 cg2d: Sum(rhs),rhsMax =  -4.67126337611035E-13  2.13058017710938E-03
 EXTERNAL_FIELDS_LOAD,       514 : iP,iLd,i0,i1=   26   27   26   27 ; Wght=  0.8000000000  0.2000000000
 cg2d: Sum(rhs),rhsMax =  -2.38697950294409E-14  2.13832127513261E-03
 EXTERNAL_FIELDS_LOAD,       515 : iP,iLd,i0,i1=   26   27   26   27 ; Wght=  0.7500000000  0.2500000000
 cg2d: Sum(rhs),rhsMax =   6.42205039147470E-13  2.13973483076428E-03
 EXTERNAL_FIELDS_LOAD,       516 : iP,iLd,i0,i1=   26   27   26   27 ; Wght=  0.7000000000  0.3000000000
 cg2d: Sum(rhs),rhsMax =  -3.60766971851945E-13  2.13474115606305E-03
 EXTERNAL_FIELDS_LOAD,       517 : iP,iLd,i0,i1=   26   27   26   27 ; Wght=  0.6500000000  0.3500000000
 cg2d: Sum(rhs),rhsMax =  -1.50546242139171E-13  2.12329247039325E-03
 EXTERNAL_FIELDS_LOAD,       518 : iP,iLd,i0,i1=   26   27   26   27 ; Wght=  0.6000000000  0.4000000000
 cg2d: Sum(rhs),rhsMax =   1.02029495963052E-13  2.10855646490004E-03
 EXTERNAL_FIELDS_LOAD,       519 : iP,iLd,i0,i1=   26   27   26   27 ; Wght=  0.5500000000  0.4500000000
 cg2d: Sum(rhs),rhsMax =  -1.07580611086178E-13  2.10141017492079E-03
(PID.TID 0000.0001)      cg2d_init_res =   9.45297459948311E-01
(PID.TID 0000.0001)      cg2d_iters(min,last) =      -1      34
(PID.TID 0000.0001)      cg2d_last_res =   9.29710401093030E-08
(PID.TID 0000.0001) // =======================================================
(PID.TID 0000.0001) // Begin MONITOR dynamic field statistics
(PID.TID 0000.0001) // =======================================================
(PID.TID 0000.0001) %MON time_tsnumber                =                   520
(PID.TID 0000.0001) %MON time_secondsf                =   3.1200000000000E+04
(PID.TID 0000.0001) %MON dynstat_eta_max              =   1.7887098827130E-02
(PID.TID 0000.0001) %MON dynstat_eta_min              =  -1.7929823460118E-02
(PID.TID 0000.0001) %MON dynstat_eta_mean             =  -4.3366815638262E-20
(PID.TID 0000.0001) %MON dynstat_eta_sd               =   7.7366733405787E-04
(PID.TID 0000.0001) %MON dynstat_eta_del2             =   4.6170863233620E-07
(PID.TID 0000.0001) %MON dynstat_uvel_max             =   1.1789443791555E-01
(PID.TID 0000.0001) %MON dynstat_uvel_min             =  -8.0792471760324E-02
(PID.TID 0000.0001) %MON dynstat_uvel_mean            =   3.2657931166894E-05
(PID.TID 0000.0001) %MON dynstat_uvel_sd              =   2.7701846707992E-03
(PID.TID 0000.0001) %MON dynstat_uvel_del2            =   5.1616395702021E-07
(PID.TID 0000.0001) %MON dynstat_vvel_max             =   1.1541107243585E-01
(PID.TID 0000.0001) %MON dynstat_vvel_min             =  -7.5405964901570E-02
(PID.TID 0000.0001) %MON dynstat_vvel_mean            =  -5.6449350707822E-05
(PID.TID 0000.0001) %MON dynstat_vvel_sd              =   2.6162372880841E-03
(PID.TID 0000.0001) %MON dynstat_vvel_del2            =   5.0444528202321E-07
(PID.TID 0000.0001) %MON dynstat_wvel_max             =   1.2457670748163E-04
(PID.TID 0000.0001) %MON dynstat_wvel_min             =  -1.0078732595671E-04
(PID.TID 0000.0001) %MON dynstat_wvel_mean            =   1.4164539839691E-07
(PID.TID 0000.0001) %MON dynstat_wvel_sd              =   1.3303651678158E-06
(PID.TID 0000.0001) %MON dynstat_wvel_del2            =   2.7066979236562E-09
(PID.TID 0000.0001) %MON dynstat_theta_max            =   1.6580876303735E+01
(PID.TID 0000.0001) %MON dynstat_theta_min            =   4.2490966188083E+00
(PID.TID 0000.0001) %MON dynstat_theta_mean           =   7.6151843136529E+00
(PID.TID 0000.0001) %MON dynstat_theta_sd             =   3.6062102108413E+00
(PID.TID 0000.0001) %MON dynstat_theta_del2           =   2.3019471199828E-07
(PID.TID 0000.0001) %MON dynstat_salt_max             =   3.4471498817917E+01
(PID.TID 0000.0001) %MON dynstat_salt_min             =   3.3629968279564E+01
(PID.TID 0000.0001) %MON dynstat_salt_mean            =   3.4187264959298E+01
(PID.TID 0000.0001) %MON dynstat_salt_sd              =   2.7103760711065E-01
(PID.TID 0000.0001) %MON dynstat_salt_del2            =   9.3711844384930E-09
(PID.TID 0000.0001) %MON trAdv_CFL_u_max              =   3.5120260260536E-03
(PID.TID 0000.0001) %MON trAdv_CFL_v_max              =   4.1137572681897E-03
(PID.TID 0000.0001) %MON trAdv_CFL_w_max              =   3.2559081952227E-03
(PID.TID 0000.0001) %MON advcfl_uvel_max              =   3.5219528865208E-03
(PID.TID 0000.0001) %MON advcfl_vvel_max              =   3.4461353369918E-03
(PID.TID 0000.0001) %MON advcfl_wvel_max              =   3.4765592785572E-03
(PID.TID 0000.0001) %MON advcfl_W_hf_max              =   3.7373012244489E-03
(PID.TID 0000.0001) %MON pe_b_mean                    =   3.1378385332958E-09
(PID.TID 0000.0001) %MON ke_max                       =   9.7861505034960E-03
(PID.TID 0000.0001) %MON ke_mean                      =   7.2509703825947E-06
(PID.TID 0000.0001) %MON ke_vol                       =   8.2760855027014E+14
(PID.TID 0000.0001) %MON vort_r_min                   =  -6.4243273432170E-05
(PID.TID 0000.0001) %MON vort_r_max                   =   1.1613421915481E-04
(PID.TID 0000.0001) %MON vort_a_mean                  =   6.9582958995909E-04
(PID.TID 0000.0001) %MON vort_a_sd                    =   1.4281876925794E-06
(PID.TID 0000.0001) %MON vort_p_mean                  =   7.0012686801198E-04
(PID.TID 0000.0001) %MON vort_p_sd                    =   9.4518056623662E-05
(PID.TID 0000.0001) %MON surfExpan_theta_mean         =   9.8056855050210E-13
(PID.TID 0000.0001) %MON surfExpan_salt_mean          =  -7.2634480668789E-21
(PID.TID 0000.0001) // =======================================================
(PID.TID 0000.0001) // End MONITOR dynamic field statistics
(PID.TID 0000.0001) // =======================================================
(PID.TID 0000.0001) // =======================================================
(PID.TID 0000.0001) // Begin OBCS MONITOR field statistics
(PID.TID 0000.0001) // =======================================================
(PID.TID 0000.0001) %MON obc_S_vVel_max               =   3.6021462168000E-04
(PID.TID 0000.0001) %MON obc_S_vVel_min               =  -7.0674497772537E-02
(PID.TID 0000.0001) %MON obc_S_vVel_mean              =  -9.4939891571997E-20
(PID.TID 0000.0001) %MON obc_S_vVel_sd                =   3.1681267676236E-03
(PID.TID 0000.0001) %MON obc_S_vVel_Int               =  -1.6120793588925E-10
(PID.TID 0000.0001) // =======================================================
(PID.TID 0000.0001) // End OBCS MONITOR field statistics
(PID.TID 0000.0001) // =======================================================
 EXTERNAL_FIELDS_LOAD,       520 : iP,iLd,i0,i1=   26   27   26   27 ; Wght=  0.5000000000  0.5000000000
 cg2d: Sum(rhs),rhsMax =   1.04694031222152E-13  2.08629679189417E-03
 EXTERNAL_FIELDS_LOAD,       521 : iP,iLd,i0,i1=   26   27   26   27 ; Wght=  0.4500000000  0.5500000000
 cg2d: Sum(rhs),rhsMax =   5.99520433297585E-13  2.06330787772019E-03
 EXTERNAL_FIELDS_LOAD,       522 : iP,iLd,i0,i1=   26   27   26   27 ; Wght=  0.4000000000  0.6000000000
 cg2d: Sum(rhs),rhsMax =   3.90132370853280E-13  2.03258538052810E-03
 EXTERNAL_FIELDS_LOAD,       523 : iP,iLd,i0,i1=   26   27   26   27 ; Wght=  0.3500000000  0.6500000000
 cg2d: Sum(rhs),rhsMax =   2.08721928629529E-13  1.99431949664383E-03
 EXTERNAL_FIELDS_LOAD,       524 : iP,iLd,i0,i1=   26   27   26   27 ; Wght=  0.3000000000  0.7000000000
 cg2d: Sum(rhs),rhsMax =   3.43725048423948E-13  1.94874599590889E-03
 EXTERNAL_FIELDS_LOAD,       525 : iP,iLd,i0,i1=   26   27   26   27 ; Wght=  0.2500000000  0.7500000000
 cg2d: Sum(rhs),rhsMax =   3.49054118942149E-13  1.89614307649588E-03
 EXTERNAL_FIELDS_LOAD,       526 : iP,iLd,i0,i1=   26   27   26   27 ; Wght=  0.2000000000  0.8000000000
 cg2d: Sum(rhs),rhsMax =   4.43201031430362E-13  1.86903813581924E-03
 EXTERNAL_FIELDS_LOAD,       527 : iP,iLd,i0,i1=   26   27   26   27 ; Wght=  0.1500000000  0.8500000000
 cg2d: Sum(rhs),rhsMax =   3.29514193708746E-13  1.87457162719335E-03
 EXTERNAL_FIELDS_LOAD,       528 : iP,iLd,i0,i1=   26   27   26   27 ; Wght=  0.1000000000  0.9000000000
 cg2d: Sum(rhs),rhsMax =   1.50102152929321E-13  1.87360833419697E-03
 EXTERNAL_FIELDS_LOAD,       529 : iP,iLd,i0,i1=   26   27   26   27 ; Wght=  0.0500000000  0.9500000000
 cg2d: Sum(rhs),rhsMax =   2.01616501271928E-13  1.86625799837928E-03
 EXTERNAL_FIELDS_LOAD,       530 : iP,iLd,i0,i1=   26   27   27   28 ; Wght=  1.0000000000  0.0000000000
 EXTERNAL_FIELDS_LOAD, it=       530 : Reading new data, i0,i1=   27   28 (prev=   26   27 )
(PID.TID 0000.0001)  MDS_READ_FIELD: opening global file: ../input/merid_halfgauss2p5hr_272x320.bin
(PID.TID 0000.0001)  MDS_READ_FIELD: opening global file: ../input/merid_halfgauss2p5hr_272x320.bin
 cg2d: Sum(rhs),rhsMax =   2.48689957516035E-13  1.85265374593842E-03
 EXTERNAL_FIELDS_LOAD,       531 : iP,iLd,i0,i1=   27   28   27   28 ; Wght=  0.9500000000  0.0500000000
 cg2d: Sum(rhs),rhsMax =   3.62376795237651E-13  1.83294942805993E-03
 EXTERNAL_FIELDS_LOAD,       532 : iP,iLd,i0,i1=   27   28   27   28 ; Wght=  0.9000000000  0.1000000000
 cg2d: Sum(rhs),rhsMax =   1.97175609173428E-13  1.80731708819086E-03
 EXTERNAL_FIELDS_LOAD,       533 : iP,iLd,i0,i1=   27   28   27   28 ; Wght=  0.8500000000  0.1500000000
 cg2d: Sum(rhs),rhsMax =   1.82964754458226E-13  1.77594461029061E-03
 EXTERNAL_FIELDS_LOAD,       534 : iP,iLd,i0,i1=   27   28   27   28 ; Wght=  0.8000000000  0.2000000000
 cg2d: Sum(rhs),rhsMax =   2.77999845366139E-13  1.73903359312798E-03
 EXTERNAL_FIELDS_LOAD,       535 : iP,iLd,i0,i1=   27   28   27   28 ; Wght=  0.7500000000  0.2500000000
 cg2d: Sum(rhs),rhsMax =   2.90434343241941E-13  1.69679748587231E-03
 EXTERNAL_FIELDS_LOAD,       536 : iP,iLd,i0,i1=   27   28   27   28 ; Wght=  0.7000000000  0.3000000000
 cg2d: Sum(rhs),rhsMax =   2.33590924381133E-13  1.64946000985097E-03
 EXTERNAL_FIELDS_LOAD,       537 : iP,iLd,i0,i1=   27   28   27   28 ; Wght=  0.6500000000  0.3500000000
 cg2d: Sum(rhs),rhsMax =   2.59348098552437E-13  1.59725388071181E-03
 EXTERNAL_FIELDS_LOAD,       538 : iP,iLd,i0,i1=   27   28   27   28 ; Wght=  0.6000000000  0.4000000000
 cg2d: Sum(rhs),rhsMax =   1.43884903991420E-13  1.54041983462123E-03
 EXTERNAL_FIELDS_LOAD,       539 : iP,iLd,i0,i1=   27   28   27   28 ; Wght=  0.5500000000  0.4500000000
 cg2d: Sum(rhs),rhsMax =  -1.72306613421824E-13  1.52025494851279E-03
(PID.TID 0000.0001)      cg2d_init_res =   1.15262882782946E+00
(PID.TID 0000.0001)      cg2d_iters(min,last) =      -1      35
(PID.TID 0000.0001)      cg2d_last_res =   8.92762335757397E-08
(PID.TID 0000.0001) // =======================================================
(PID.TID 0000.0001) // Begin MONITOR dynamic field statistics
(PID.TID 0000.0001) // =======================================================
(PID.TID 0000.0001) %MON time_tsnumber                =                   540
(PID.TID 0000.0001) %MON time_secondsf                =   3.2400000000000E+04
(PID.TID 0000.0001) %MON dynstat_eta_max              =   2.3754701157353E-02
(PID.TID 0000.0001) %MON dynstat_eta_min              =  -1.7949144977411E-02
(PID.TID 0000.0001) %MON dynstat_eta_mean             =  -1.1818937919017E-19
(PID.TID 0000.0001) %MON dynstat_eta_sd               =   7.0533982058722E-04
(PID.TID 0000.0001) %MON dynstat_eta_del2             =   4.4758396170428E-07
(PID.TID 0000.0001) %MON dynstat_uvel_max             =   1.2230053396805E-01
(PID.TID 0000.0001) %MON dynstat_uvel_min             =  -1.0345024385839E-01
(PID.TID 0000.0001) %MON dynstat_uvel_mean            =  -2.3214040755929E-05
(PID.TID 0000.0001) %MON dynstat_uvel_sd              =   3.7781265098784E-03
(PID.TID 0000.0001) %MON dynstat_uvel_del2            =   5.0985425717191E-07
(PID.TID 0000.0001) %MON dynstat_vvel_max             =   1.0769224908874E-01
(PID.TID 0000.0001) %MON dynstat_vvel_min             =  -3.2510351344104E-02
(PID.TID 0000.0001) %MON dynstat_vvel_mean            =  -6.1980856590036E-05
(PID.TID 0000.0001) %MON dynstat_vvel_sd              =   3.6943303313887E-04
(PID.TID 0000.0001) %MON dynstat_vvel_del2            =   4.7474043971857E-07
(PID.TID 0000.0001) %MON dynstat_wvel_max             =   1.1350354142051E-04
(PID.TID 0000.0001) %MON dynstat_wvel_min             =  -1.0067099202782E-04
(PID.TID 0000.0001) %MON dynstat_wvel_mean            =   2.2985504159554E-08
(PID.TID 0000.0001) %MON dynstat_wvel_sd              =   1.2027135570887E-06
(PID.TID 0000.0001) %MON dynstat_wvel_del2            =   2.6991001295282E-09
(PID.TID 0000.0001) %MON dynstat_theta_max            =   1.6580715861003E+01
(PID.TID 0000.0001) %MON dynstat_theta_min            =   4.2490896729039E+00
(PID.TID 0000.0001) %MON dynstat_theta_mean           =   7.6151825835383E+00
(PID.TID 0000.0001) %MON dynstat_theta_sd             =   3.6062071610760E+00
(PID.TID 0000.0001) %MON dynstat_theta_del2           =   2.2816717748703E-07
(PID.TID 0000.0001) %MON dynstat_salt_max             =   3.4471499599765E+01
(PID.TID 0000.0001) %MON dynstat_salt_min             =   3.3629975244834E+01
(PID.TID 0000.0001) %MON dynstat_salt_mean            =   3.4187265066575E+01
(PID.TID 0000.0001) %MON dynstat_salt_sd              =   2.7103746308427E-01
(PID.TID 0000.0001) %MON dynstat_salt_del2            =   9.3635645315149E-09
(PID.TID 0000.0001) %MON trAdv_CFL_u_max              =   3.6490949564591E-03
(PID.TID 0000.0001) %MON trAdv_CFL_v_max              =   3.9632643804739E-03
(PID.TID 0000.0001) %MON trAdv_CFL_w_max              =   2.9822811588451E-03
(PID.TID 0000.0001) %MON advcfl_uvel_max              =   3.6535796450411E-03
(PID.TID 0000.0001) %MON advcfl_vvel_max              =   3.2156538993352E-03
(PID.TID 0000.0001) %MON advcfl_wvel_max              =   3.1675406908049E-03
(PID.TID 0000.0001) %MON advcfl_W_hf_max              =   3.4051062426153E-03
(PID.TID 0000.0001) %MON pe_b_mean                    =   2.6080677998748E-09
(PID.TID 0000.0001) %MON ke_max                       =   9.5038178015996E-03
(PID.TID 0000.0001) %MON ke_mean                      =   7.2071641390741E-06
(PID.TID 0000.0001) %MON ke_vol                       =   8.2760855027014E+14
(PID.TID 0000.0001) %MON vort_r_min                   =  -7.6477930074745E-05
(PID.TID 0000.0001) %MON vort_r_max                   =   1.1448378703071E-04
(PID.TID 0000.0001) %MON vort_a_mean                  =   6.9582958995909E-04
(PID.TID 0000.0001) %MON vort_a_sd                    =   1.4318436902686E-06
(PID.TID 0000.0001) %MON vort_p_mean                  =   7.0012686801198E-04
(PID.TID 0000.0001) %MON vort_p_sd                    =   9.4521803259052E-05
(PID.TID 0000.0001) %MON surfExpan_theta_mean         =   4.1020595884845E-13
(PID.TID 0000.0001) %MON surfExpan_salt_mean          =   3.2080914451674E-22
(PID.TID 0000.0001) // =======================================================
(PID.TID 0000.0001) // End MONITOR dynamic field statistics
(PID.TID 0000.0001) // =======================================================
(PID.TID 0000.0001) // =======================================================
(PID.TID 0000.0001) // Begin OBCS MONITOR field statistics
(PID.TID 0000.0001) // =======================================================
(PID.TID 0000.0001) %MON obc_S_vVel_max               =   8.6359034575097E-05
(PID.TID 0000.0001) %MON obc_S_vVel_min               =  -8.7743519020281E-03
(PID.TID 0000.0001) %MON obc_S_vVel_mean              =  -7.0803198404363E-21
(PID.TID 0000.0001) %MON obc_S_vVel_sd                =   3.9430421871913E-04
(PID.TID 0000.0001) %MON obc_S_vVel_Int               =  -1.2022383089061E-11
(PID.TID 0000.0001) // =======================================================
(PID.TID 0000.0001) // End OBCS MONITOR field statistics
(PID.TID 0000.0001) // =======================================================
 EXTERNAL_FIELDS_LOAD,       540 : iP,iLd,i0,i1=   27   28   27   28 ; Wght=  0.5000000000  0.5000000000
 cg2d: Sum(rhs),rhsMax =   5.98632254877884E-13  1.50932124901808E-03
 EXTERNAL_FIELDS_LOAD,       541 : iP,iLd,i0,i1=   27   28   27   28 ; Wght=  0.4500000000  0.5500000000
 cg2d: Sum(rhs),rhsMax =   1.75859327100625E-13  1.49843731568561E-03
 EXTERNAL_FIELDS_LOAD,       542 : iP,iLd,i0,i1=   27   28   27   28 ; Wght=  0.4000000000  0.6000000000
 cg2d: Sum(rhs),rhsMax =   1.40332190312620E-13  1.52340095007053E-03
 EXTERNAL_FIELDS_LOAD,       543 : iP,iLd,i0,i1=   27   28   27   28 ; Wght=  0.3500000000  0.6500000000
 cg2d: Sum(rhs),rhsMax =   6.35935748505290E-13  1.54407274556281E-03
 EXTERNAL_FIELDS_LOAD,       544 : iP,iLd,i0,i1=   27   28   27   28 ; Wght=  0.3000000000  0.7000000000
 cg2d: Sum(rhs),rhsMax =   1.47437617670221E-13  1.56057459040218E-03
 EXTERNAL_FIELDS_LOAD,       545 : iP,iLd,i0,i1=   27   28   27   28 ; Wght=  0.2500000000  0.7500000000
 cg2d: Sum(rhs),rhsMax =   5.41788836017076E-13  1.57303450701338E-03
 EXTERNAL_FIELDS_LOAD,       546 : iP,iLd,i0,i1=   27   28   27   28 ; Wght=  0.2000000000  0.8000000000
 cg2d: Sum(rhs),rhsMax =  -3.09086090055644E-13  1.58158526128156E-03
 EXTERNAL_FIELDS_LOAD,       547 : iP,iLd,i0,i1=   27   28   27   28 ; Wght=  0.1500000000  0.8500000000
 cg2d: Sum(rhs),rhsMax =   4.65405491922866E-13  1.58636307161224E-03
 EXTERNAL_FIELDS_LOAD,       548 : iP,iLd,i0,i1=   27   28   27   28 ; Wght=  0.1000000000  0.9000000000
 cg2d: Sum(rhs),rhsMax =   5.75539615965681E-13  1.58750642948186E-03
 EXTERNAL_FIELDS_LOAD,       549 : iP,iLd,i0,i1=   27   28   27   28 ; Wght=  0.0500000000  0.9500000000
 cg2d: Sum(rhs),rhsMax =   9.87654402706539E-13  1.58515504041259E-03
 EXTERNAL_FIELDS_LOAD,       550 : iP,iLd,i0,i1=   27   28   28   29 ; Wght=  1.0000000000  0.0000000000
 EXTERNAL_FIELDS_LOAD, it=       550 : Reading new data, i0,i1=   28   29 (prev=   27   28 )
(PID.TID 0000.0001)  MDS_READ_FIELD: opening global file: ../input/merid_halfgauss2p5hr_272x320.bin
(PID.TID 0000.0001)  MDS_READ_FIELD: opening global file: ../input/merid_halfgauss2p5hr_272x320.bin
 cg2d: Sum(rhs),rhsMax =   4.20996570937859E-13  1.57944889145745E-03
 EXTERNAL_FIELDS_LOAD,       551 : iP,iLd,i0,i1=   28   29   28   29 ; Wght=  0.9500000000  0.0500000000
 cg2d: Sum(rhs),rhsMax =   6.85673740008497E-13  1.57052744846285E-03
 EXTERNAL_FIELDS_LOAD,       552 : iP,iLd,i0,i1=   28   29   28   29 ; Wght=  0.9000000000  0.1000000000
 cg2d: Sum(rhs),rhsMax =   2.11386463888630E-13  1.55852898364471E-03
 EXTERNAL_FIELDS_LOAD,       553 : iP,iLd,i0,i1=   28   29   28   29 ; Wght=  0.8500000000  0.1500000000
 cg2d: Sum(rhs),rhsMax =   3.87245790989255E-13  1.56388986447760E-03
 EXTERNAL_FIELDS_LOAD,       554 : iP,iLd,i0,i1=   28   29   28   29 ; Wght=  0.8000000000  0.2000000000
 cg2d: Sum(rhs),rhsMax =   5.27577981301874E-13  1.58759107021640E-03
 EXTERNAL_FIELDS_LOAD,       555 : iP,iLd,i0,i1=   28   29   28   29 ; Wght=  0.7500000000  0.2500000000
 cg2d: Sum(rhs),rhsMax =  -1.90070181815827E-13  1.60612856021183E-03
 EXTERNAL_FIELDS_LOAD,       556 : iP,iLd,i0,i1=   28   29   28   29 ; Wght=  0.7000000000  0.3000000000
 cg2d: Sum(rhs),rhsMax =   1.86517468137026E-13  1.61951376782500E-03
 EXTERNAL_FIELDS_LOAD,       557 : iP,iLd,i0,i1=   28   29   28   29 ; Wght=  0.6500000000  0.3500000000
 cg2d: Sum(rhs),rhsMax =   2.32702745961433E-13  1.62777737962758E-03
 EXTERNAL_FIELDS_LOAD,       558 : iP,iLd,i0,i1=   28   29   28   29 ; Wght=  0.6000000000  0.4000000000
 cg2d: Sum(rhs),rhsMax =   4.12114786740858E-13  1.63096933121096E-03
 EXTERNAL_FIELDS_LOAD,       559 : iP,iLd,i0,i1=   28   29   28   29 ; Wght=  0.5500000000  0.4500000000
 cg2d: Sum(rhs),rhsMax =   1.93622895494627E-13  1.62915869453868E-03
(PID.TID 0000.0001)      cg2d_init_res =   6.15796702587365E-01
(PID.TID 0000.0001)      cg2d_iters(min,last) =      -1      34
(PID.TID 0000.0001)      cg2d_last_res =   7.24289794916243E-08
(PID.TID 0000.0001) // =======================================================
(PID.TID 0000.0001) // Begin MONITOR dynamic field statistics
(PID.TID 0000.0001) // =======================================================
(PID.TID 0000.0001) %MON time_tsnumber                =                   560
(PID.TID 0000.0001) %MON time_secondsf                =   3.3600000000000E+04
(PID.TID 0000.0001) %MON dynstat_eta_max              =   2.0153780846358E-02
(PID.TID 0000.0001) %MON dynstat_eta_min              =  -1.5573130650182E-02
(PID.TID 0000.0001) %MON dynstat_eta_mean             =  -7.5809668611955E-20
(PID.TID 0000.0001) %MON dynstat_eta_sd               =   7.8783378860484E-04
(PID.TID 0000.0001) %MON dynstat_eta_del2             =   4.2958567472696E-07
(PID.TID 0000.0001) %MON dynstat_uvel_max             =   1.2408332800598E-01
(PID.TID 0000.0001) %MON dynstat_uvel_min             =  -7.2341271799652E-02
(PID.TID 0000.0001) %MON dynstat_uvel_mean            =  -5.1630611498558E-05
(PID.TID 0000.0001) %MON dynstat_uvel_sd              =   2.3109195800881E-03
(PID.TID 0000.0001) %MON dynstat_uvel_del2            =   4.9589440771059E-07
(PID.TID 0000.0001) %MON dynstat_vvel_max             =   9.5265120879120E-02
(PID.TID 0000.0001) %MON dynstat_vvel_min             =  -3.6491414110455E-02
(PID.TID 0000.0001) %MON dynstat_vvel_mean            =   2.4340384347905E-06
(PID.TID 0000.0001) %MON dynstat_vvel_sd              =   2.9998944182079E-03
(PID.TID 0000.0001) %MON dynstat_vvel_del2            =   4.5998860887210E-07
(PID.TID 0000.0001) %MON dynstat_wvel_max             =   9.3034736556230E-05
(PID.TID 0000.0001) %MON dynstat_wvel_min             =  -9.9815439867593E-05
(PID.TID 0000.0001) %MON dynstat_wvel_mean            =  -1.1012922810827E-07
(PID.TID 0000.0001) %MON dynstat_wvel_sd              =   1.4296819607175E-06
(PID.TID 0000.0001) %MON dynstat_wvel_del2            =   2.6630531800989E-09
(PID.TID 0000.0001) %MON dynstat_theta_max            =   1.6580568417976E+01
(PID.TID 0000.0001) %MON dynstat_theta_min            =   4.2490747512409E+00
(PID.TID 0000.0001) %MON dynstat_theta_mean           =   7.6151836097896E+00
(PID.TID 0000.0001) %MON dynstat_theta_sd             =   3.6062070810053E+00
(PID.TID 0000.0001) %MON dynstat_theta_del2           =   2.2491536289435E-07
(PID.TID 0000.0001) %MON dynstat_salt_max             =   3.4471501280042E+01
(PID.TID 0000.0001) %MON dynstat_salt_min             =   3.3629977673117E+01
(PID.TID 0000.0001) %MON dynstat_salt_mean            =   3.4187265006099E+01
(PID.TID 0000.0001) %MON dynstat_salt_sd              =   2.7103745391210E-01
(PID.TID 0000.0001) %MON dynstat_salt_del2            =   9.2694556472156E-09
(PID.TID 0000.0001) %MON trAdv_CFL_u_max              =   3.7056484124975E-03
(PID.TID 0000.0001) %MON trAdv_CFL_v_max              =   3.5260483588176E-03
(PID.TID 0000.0001) %MON trAdv_CFL_w_max              =   2.4567322600123E-03
(PID.TID 0000.0001) %MON advcfl_uvel_max              =   3.7068384477376E-03
(PID.TID 0000.0001) %MON advcfl_vvel_max              =   2.8445840811920E-03
(PID.TID 0000.0001) %MON advcfl_wvel_max              =   2.5963182294762E-03
(PID.TID 0000.0001) %MON advcfl_W_hf_max              =   2.7910420966869E-03
(PID.TID 0000.0001) %MON pe_b_mean                    =   3.2538031627232E-09
(PID.TID 0000.0001) %MON ke_max                       =   8.7104889101492E-03
(PID.TID 0000.0001) %MON ke_mean                      =   7.1640752000222E-06
(PID.TID 0000.0001) %MON ke_vol                       =   8.2760855027014E+14
(PID.TID 0000.0001) %MON vort_r_min                   =  -8.0894073294348E-05
(PID.TID 0000.0001) %MON vort_r_max                   =   1.0918359183671E-04
(PID.TID 0000.0001) %MON vort_a_mean                  =   6.9582958995909E-04
(PID.TID 0000.0001) %MON vort_a_sd                    =   1.4288726370640E-06
(PID.TID 0000.0001) %MON vort_p_mean                  =   7.0012686801198E-04
(PID.TID 0000.0001) %MON vort_p_sd                    =   9.4521458205897E-05
(PID.TID 0000.0001) %MON surfExpan_theta_mean         =   2.2548601249994E-13
(PID.TID 0000.0001) %MON surfExpan_salt_mean          =   4.8532665452532E-21
(PID.TID 0000.0001) // =======================================================
(PID.TID 0000.0001) // End MONITOR dynamic field statistics
(PID.TID 0000.0001) // =======================================================
(PID.TID 0000.0001) // =======================================================
(PID.TID 0000.0001) // Begin OBCS MONITOR field statistics
(PID.TID 0000.0001) // =======================================================
(PID.TID 0000.0001) %MON obc_S_vVel_max               =   5.8283560838337E-02
(PID.TID 0000.0001) %MON obc_S_vVel_min               =  -2.5688698878368E-04
(PID.TID 0000.0001) %MON obc_S_vVel_mean              =   1.3631707985937E-19
(PID.TID 0000.0001) %MON obc_S_vVel_sd                =   2.6123858790384E-03
(PID.TID 0000.0001) %MON obc_S_vVel_Int               =   2.3146640160121E-10
(PID.TID 0000.0001) // =======================================================
(PID.TID 0000.0001) // End OBCS MONITOR field statistics
(PID.TID 0000.0001) // =======================================================
 EXTERNAL_FIELDS_LOAD,       560 : iP,iLd,i0,i1=   28   29   28   29 ; Wght=  0.5000000000  0.5000000000
 cg2d: Sum(rhs),rhsMax =  -4.20996570937859E-13  1.62243345265680E-03
 EXTERNAL_FIELDS_LOAD,       561 : iP,iLd,i0,i1=   28   29   28   29 ; Wght=  0.4500000000  0.5500000000
 cg2d: Sum(rhs),rhsMax =  -2.54019028034236E-13  1.61090015938454E-03
 EXTERNAL_FIELDS_LOAD,       562 : iP,iLd,i0,i1=   28   29   28   29 ; Wght=  0.4000000000  0.6000000000
 cg2d: Sum(rhs),rhsMax =   8.38440428196918E-13  1.59468348342841E-03
 EXTERNAL_FIELDS_LOAD,       563 : iP,iLd,i0,i1=   28   29   28   29 ; Wght=  0.3500000000  0.6500000000
 cg2d: Sum(rhs),rhsMax =   1.77635683940025E-14  1.57392563825466E-03
 EXTERNAL_FIELDS_LOAD,       564 : iP,iLd,i0,i1=   28   29   28   29 ; Wght=  0.3000000000  0.7000000000
 cg2d: Sum(rhs),rhsMax =  -3.55271367880050E-14  1.54878570091923E-03
 EXTERNAL_FIELDS_LOAD,       565 : iP,iLd,i0,i1=   28   29   28   29 ; Wght=  0.2500000000  0.7500000000
 cg2d: Sum(rhs),rhsMax =   1.03028696685215E-13  1.52130981462378E-03
 EXTERNAL_FIELDS_LOAD,       566 : iP,iLd,i0,i1=   28   29   28   29 ; Wght=  0.2000000000  0.8000000000
 cg2d: Sum(rhs),rhsMax =  -7.10542735760100E-14  1.49010121866774E-03
 EXTERNAL_FIELDS_LOAD,       567 : iP,iLd,i0,i1=   28   29   28   29 ; Wght=  0.1500000000  0.8500000000
 cg2d: Sum(rhs),rhsMax =   4.83169060316868E-13  1.45505918683013E-03
 EXTERNAL_FIELDS_LOAD,       568 : iP,iLd,i0,i1=   28   29   28   29 ; Wght=  0.1000000000  0.9000000000
 cg2d: Sum(rhs),rhsMax =  -7.03437308402499E-13  1.42407033683288E-03
 EXTERNAL_FIELDS_LOAD,       569 : iP,iLd,i0,i1=   28   29   28   29 ; Wght=  0.0500000000  0.9500000000
 cg2d: Sum(rhs),rhsMax =   3.41060513164848E-13  1.41689517441651E-03
 EXTERNAL_FIELDS_LOAD,       570 : iP,iLd,i0,i1=   28   29   29   30 ; Wght=  1.0000000000  0.0000000000
 EXTERNAL_FIELDS_LOAD, it=       570 : Reading new data, i0,i1=   29   30 (prev=   28   29 )
(PID.TID 0000.0001)  MDS_READ_FIELD: opening global file: ../input/merid_halfgauss2p5hr_272x320.bin
(PID.TID 0000.0001)  MDS_READ_FIELD: opening global file: ../input/merid_halfgauss2p5hr_272x320.bin
 cg2d: Sum(rhs),rhsMax =  -3.83693077310454E-13  1.40455833191312E-03
 EXTERNAL_FIELDS_LOAD,       571 : iP,iLd,i0,i1=   29   30   29   30 ; Wght=  0.9500000000  0.0500000000
 cg2d: Sum(rhs),rhsMax =   1.45661260830821E-13  1.38721330247090E-03
 EXTERNAL_FIELDS_LOAD,       572 : iP,iLd,i0,i1=   29   30   29   30 ; Wght=  0.9000000000  0.1000000000
 cg2d: Sum(rhs),rhsMax =   9.73443547991337E-13  1.36692526838801E-03
 EXTERNAL_FIELDS_LOAD,       573 : iP,iLd,i0,i1=   29   30   29   30 ; Wght=  0.8500000000  0.1500000000
 cg2d: Sum(rhs),rhsMax =   7.67386154620908E-13  1.35859817523670E-03
 EXTERNAL_FIELDS_LOAD,       574 : iP,iLd,i0,i1=   29   30   29   30 ; Wght=  0.8000000000  0.2000000000
 cg2d: Sum(rhs),rhsMax =   3.69482222595252E-13  1.35112774055597E-03
 EXTERNAL_FIELDS_LOAD,       575 : iP,iLd,i0,i1=   29   30   29   30 ; Wght=  0.7500000000  0.2500000000
 cg2d: Sum(rhs),rhsMax =   2.73558953267639E-13  1.34561959951720E-03
 EXTERNAL_FIELDS_LOAD,       576 : iP,iLd,i0,i1=   29   30   29   30 ; Wght=  0.7000000000  0.3000000000
 cg2d: Sum(rhs),rhsMax =   7.31859017832903E-13  1.33668863942435E-03
 EXTERNAL_FIELDS_LOAD,       577 : iP,iLd,i0,i1=   29   30   29   30 ; Wght=  0.6500000000  0.3500000000
 cg2d: Sum(rhs),rhsMax =   5.54223333892878E-13  1.32429227252571E-03
 EXTERNAL_FIELDS_LOAD,       578 : iP,iLd,i0,i1=   29   30   29   30 ; Wght=  0.6000000000  0.4000000000
 cg2d: Sum(rhs),rhsMax =   3.90798504668055E-14  1.30841057840594E-03
 EXTERNAL_FIELDS_LOAD,       579 : iP,iLd,i0,i1=   29   30   29   30 ; Wght=  0.5500000000  0.4500000000
 cg2d: Sum(rhs),rhsMax =   3.51718654201250E-13  1.28904665543920E-03
(PID.TID 0000.0001)      cg2d_init_res =   1.32333947244178E+00
(PID.TID 0000.0001)      cg2d_iters(min,last) =      -1      35
(PID.TID 0000.0001)      cg2d_last_res =   9.08810306196806E-08
(PID.TID 0000.0001) // =======================================================
(PID.TID 0000.0001) // Begin MONITOR dynamic field statistics
(PID.TID 0000.0001) // =======================================================
(PID.TID 0000.0001) %MON time_tsnumber                =                   580
(PID.TID 0000.0001) %MON time_secondsf                =   3.4800000000000E+04
(PID.TID 0000.0001) %MON dynstat_eta_max              =   1.8902370038874E-02
(PID.TID 0000.0001) %MON dynstat_eta_min              =  -1.2663717371870E-02
(PID.TID 0000.0001) %MON dynstat_eta_mean             =  -1.0844994259766E-19
(PID.TID 0000.0001) %MON dynstat_eta_sd               =   6.5609802296069E-04
(PID.TID 0000.0001) %MON dynstat_eta_del2             =   4.2009616329236E-07
(PID.TID 0000.0001) %MON dynstat_uvel_max             =   1.2330714107221E-01
(PID.TID 0000.0001) %MON dynstat_uvel_min             =  -4.2867599066667E-02
(PID.TID 0000.0001) %MON dynstat_uvel_mean            =  -2.0525572115719E-05
(PID.TID 0000.0001) %MON dynstat_uvel_sd              =   7.1358665331440E-04
(PID.TID 0000.0001) %MON dynstat_uvel_del2            =   4.6627929209114E-07
(PID.TID 0000.0001) %MON dynstat_vvel_max             =   9.5304339890050E-02
(PID.TID 0000.0001) %MON dynstat_vvel_min             =  -4.4789783059062E-02
(PID.TID 0000.0001) %MON dynstat_vvel_mean            =   6.4570892450493E-05
(PID.TID 0000.0001) %MON dynstat_vvel_sd              =   3.7102941126256E-03
(PID.TID 0000.0001) %MON dynstat_vvel_del2            =   4.5670057551239E-07
(PID.TID 0000.0001) %MON dynstat_wvel_max             =   7.0806950079784E-05
(PID.TID 0000.0001) %MON dynstat_wvel_min             =  -9.5765445785213E-05
(PID.TID 0000.0001) %MON dynstat_wvel_mean            =  -1.6988588810797E-07
(PID.TID 0000.0001) %MON dynstat_wvel_sd              =   1.4456488412765E-06
(PID.TID 0000.0001) %MON dynstat_wvel_del2            =   2.6412416108068E-09
(PID.TID 0000.0001) %MON dynstat_theta_max            =   1.6580471448891E+01
(PID.TID 0000.0001) %MON dynstat_theta_min            =   4.2490521801143E+00
(PID.TID 0000.0001) %MON dynstat_theta_mean           =   7.6151866971466E+00
(PID.TID 0000.0001) %MON dynstat_theta_sd             =   3.6062091807668E+00
(PID.TID 0000.0001) %MON dynstat_theta_del2           =   2.1968950621297E-07
(PID.TID 0000.0001) %MON dynstat_salt_max             =   3.4471503819803E+01
(PID.TID 0000.0001) %MON dynstat_salt_min             =   3.3629978674293E+01
(PID.TID 0000.0001) %MON dynstat_salt_mean            =   3.4187264819011E+01
(PID.TID 0000.0001) %MON dynstat_salt_sd              =   2.7103754403839E-01
(PID.TID 0000.0001) %MON dynstat_salt_del2            =   9.0902317114680E-09
(PID.TID 0000.0001) %MON trAdv_CFL_u_max              =   3.6873615101627E-03
(PID.TID 0000.0001) %MON trAdv_CFL_v_max              =   3.0110987585220E-03
(PID.TID 0000.0001) %MON trAdv_CFL_w_max              =   2.3149127561225E-03
(PID.TID 0000.0001) %MON advcfl_uvel_max              =   3.6836508075046E-03
(PID.TID 0000.0001) %MON advcfl_vvel_max              =   2.8457551475082E-03
(PID.TID 0000.0001) %MON advcfl_wvel_max              =   2.1573286284517E-03
(PID.TID 0000.0001) %MON advcfl_W_hf_max              =   2.3191282755856E-03
(PID.TID 0000.0001) %MON pe_b_mean                    =   2.2566256972823E-09
(PID.TID 0000.0001) %MON ke_max                       =   7.6413540935201E-03
(PID.TID 0000.0001) %MON ke_mean                      =   7.1244035173584E-06
(PID.TID 0000.0001) %MON ke_vol                       =   8.2760855027014E+14
(PID.TID 0000.0001) %MON vort_r_min                   =  -7.6833263290066E-05
(PID.TID 0000.0001) %MON vort_r_max                   =   1.0050891494875E-04
(PID.TID 0000.0001) %MON vort_a_mean                  =   6.9582958995909E-04
(PID.TID 0000.0001) %MON vort_a_sd                    =   1.4252751753188E-06
(PID.TID 0000.0001) %MON vort_p_mean                  =   7.0012686801198E-04
(PID.TID 0000.0001) %MON vort_p_sd                    =   9.4518290007904E-05
(PID.TID 0000.0001) %MON surfExpan_theta_mean         =   8.8120832384188E-13
(PID.TID 0000.0001) %MON surfExpan_salt_mean          =  -2.1140500036103E-21
(PID.TID 0000.0001) // =======================================================
(PID.TID 0000.0001) // End MONITOR dynamic field statistics
(PID.TID 0000.0001) // =======================================================
(PID.TID 0000.0001) // =======================================================
(PID.TID 0000.0001) // Begin OBCS MONITOR field statistics
(PID.TID 0000.0001) // =======================================================
(PID.TID 0000.0001) %MON obc_S_vVel_max               =   8.6858133865985E-02
(PID.TID 0000.0001) %MON obc_S_vVel_min               =  -4.1873924796578E-04
(PID.TID 0000.0001) %MON obc_S_vVel_mean              =  -1.7541785325715E-20
(PID.TID 0000.0001) %MON obc_S_vVel_sd                =   3.8939549571698E-03
(PID.TID 0000.0001) %MON obc_S_vVel_Int               =  -2.9785951483063E-11
(PID.TID 0000.0001) // =======================================================
(PID.TID 0000.0001) // End OBCS MONITOR field statistics
(PID.TID 0000.0001) // =======================================================
 EXTERNAL_FIELDS_LOAD,       580 : iP,iLd,i0,i1=   29   30   29   30 ; Wght=  0.5000000000  0.5000000000
 cg2d: Sum(rhs),rhsMax =   4.44089209850063E-13  1.26622671727221E-03
 EXTERNAL_FIELDS_LOAD,       581 : iP,iLd,i0,i1=   29   30   29   30 ; Wght=  0.4500000000  0.5500000000
 cg2d: Sum(rhs),rhsMax =   5.82645043323282E-13  1.23999993915904E-03
 EXTERNAL_FIELDS_LOAD,       582 : iP,iLd,i0,i1=   29   30   29   30 ; Wght=  0.4000000000  0.6000000000
 cg2d: Sum(rhs),rhsMax =   1.66977542903624E-13  1.22067661506509E-03
 EXTERNAL_FIELDS_LOAD,       583 : iP,iLd,i0,i1=   29   30   29   30 ; Wght=  0.3500000000  0.6500000000
 cg2d: Sum(rhs),rhsMax =   3.62376795237651E-13  1.20365970862999E-03
 EXTERNAL_FIELDS_LOAD,       584 : iP,iLd,i0,i1=   29   30   29   30 ; Wght=  0.3000000000  0.7000000000
 cg2d: Sum(rhs),rhsMax =   2.94875235340442E-13  1.18411682216411E-03
 EXTERNAL_FIELDS_LOAD,       585 : iP,iLd,i0,i1=   29   30   29   30 ; Wght=  0.2500000000  0.7500000000
 cg2d: Sum(rhs),rhsMax =   3.48165940522449E-13  1.16209225425319E-03
 EXTERNAL_FIELDS_LOAD,       586 : iP,iLd,i0,i1=   29   30   29   30 ; Wght=  0.2000000000  0.8000000000
 cg2d: Sum(rhs),rhsMax =   3.69482222595252E-13  1.13764393967121E-03
 EXTERNAL_FIELDS_LOAD,       587 : iP,iLd,i0,i1=   29   30   29   30 ; Wght=  0.1500000000  0.8500000000
 cg2d: Sum(rhs),rhsMax =   3.23296944770846E-13  1.11095316060992E-03
 EXTERNAL_FIELDS_LOAD,       588 : iP,iLd,i0,i1=   29   30   29   30 ; Wght=  0.1000000000  0.9000000000
 cg2d: Sum(rhs),rhsMax =   2.91322521661641E-13  1.11917385421372E-03
 EXTERNAL_FIELDS_LOAD,       589 : iP,iLd,i0,i1=   29   30   29   30 ; Wght=  0.0500000000  0.9500000000
 cg2d: Sum(rhs),rhsMax =   5.68434188608080E-14  1.12338131613078E-03
 EXTERNAL_FIELDS_LOAD,       590 : iP,iLd,i0,i1=   29   30   30   31 ; Wght=  1.0000000000  0.0000000000
 EXTERNAL_FIELDS_LOAD, it=       590 : Reading new data, i0,i1=   30   31 (prev=   29   30 )
(PID.TID 0000.0001)  MDS_READ_FIELD: opening global file: ../input/merid_halfgauss2p5hr_272x320.bin
(PID.TID 0000.0001)  MDS_READ_FIELD: opening global file: ../input/merid_halfgauss2p5hr_272x320.bin
 cg2d: Sum(rhs),rhsMax =   3.55271367880050E-13  1.12346742615554E-03
 EXTERNAL_FIELDS_LOAD,       591 : iP,iLd,i0,i1=   30   31   30   31 ; Wght=  0.9500000000  0.0500000000
 cg2d: Sum(rhs),rhsMax =   2.32702745961433E-13  1.11934831741640E-03
 EXTERNAL_FIELDS_LOAD,       592 : iP,iLd,i0,i1=   30   31   30   31 ; Wght=  0.9000000000  0.1000000000
 cg2d: Sum(rhs),rhsMax =   3.25073301610246E-13  1.11681630121488E-03
 EXTERNAL_FIELDS_LOAD,       593 : iP,iLd,i0,i1=   30   31   30   31 ; Wght=  0.8500000000  0.1500000000
 cg2d: Sum(rhs),rhsMax =   6.23501250629488E-13  1.12368378006138E-03
 EXTERNAL_FIELDS_LOAD,       594 : iP,iLd,i0,i1=   30   31   30   31 ; Wght=  0.8000000000  0.2000000000
 cg2d: Sum(rhs),rhsMax =  -8.88178419700125E-15  1.12629527781735E-03
 EXTERNAL_FIELDS_LOAD,       595 : iP,iLd,i0,i1=   30   31   30   31 ; Wght=  0.7500000000  0.2500000000
 cg2d: Sum(rhs),rhsMax =   1.42108547152020E-14  1.12461369793094E-03
 EXTERNAL_FIELDS_LOAD,       596 : iP,iLd,i0,i1=   30   31   30   31 ; Wght=  0.7000000000  0.3000000000
 cg2d: Sum(rhs),rhsMax =   5.96855898038484E-13  1.11862659603842E-03
 EXTERNAL_FIELDS_LOAD,       597 : iP,iLd,i0,i1=   30   31   30   31 ; Wght=  0.6500000000  0.3500000000
 cg2d: Sum(rhs),rhsMax =   1.93622895494627E-13  1.11170586603640E-03
 EXTERNAL_FIELDS_LOAD,       598 : iP,iLd,i0,i1=   30   31   30   31 ; Wght=  0.6000000000  0.4000000000
 cg2d: Sum(rhs),rhsMax =  -4.47641923528863E-13  1.10857090172170E-03
 EXTERNAL_FIELDS_LOAD,       599 : iP,iLd,i0,i1=   30   31   30   31 ; Wght=  0.5500000000  0.4500000000
 cg2d: Sum(rhs),rhsMax =   5.32907051820075E-13  1.10183928371407E-03
(PID.TID 0000.0001)      cg2d_init_res =   1.32392884931422E+00
(PID.TID 0000.0001)      cg2d_iters(min,last) =      -1      35
(PID.TID 0000.0001)      cg2d_last_res =   8.83340734588467E-08
(PID.TID 0000.0001) // =======================================================
(PID.TID 0000.0001) // Begin MONITOR dynamic field statistics
(PID.TID 0000.0001) // =======================================================
(PID.TID 0000.0001) %MON time_tsnumber                =                   600
(PID.TID 0000.0001) %MON time_secondsf                =   3.6000000000000E+04
(PID.TID 0000.0001) %MON dynstat_eta_max              =   2.1225787321665E-02
(PID.TID 0000.0001) %MON dynstat_eta_min              =  -1.4428317125266E-02
(PID.TID 0000.0001) %MON dynstat_eta_mean             =  -6.5280547971406E-20
(PID.TID 0000.0001) %MON dynstat_eta_sd               =   6.6679199883082E-04
(PID.TID 0000.0001) %MON dynstat_eta_del2             =   4.0606991339391E-07
(PID.TID 0000.0001) %MON dynstat_uvel_max             =   1.1731194015833E-01
(PID.TID 0000.0001) %MON dynstat_uvel_min             =  -3.6968235628042E-02
(PID.TID 0000.0001) %MON dynstat_uvel_mean            =   3.4570063245691E-05
(PID.TID 0000.0001) %MON dynstat_uvel_sd              =   3.1954548377556E-03
(PID.TID 0000.0001) %MON dynstat_uvel_del2            =   4.4342784594482E-07
(PID.TID 0000.0001) %MON dynstat_vvel_max             =   6.2733535443983E-02
(PID.TID 0000.0001) %MON dynstat_vvel_min             =  -4.4249101223474E-02
(PID.TID 0000.0001) %MON dynstat_vvel_mean            =   5.3542952033237E-05
(PID.TID 0000.0001) %MON dynstat_vvel_sd              =   1.9919963242343E-03
(PID.TID 0000.0001) %MON dynstat_vvel_del2            =   4.3998030022036E-07
(PID.TID 0000.0001) %MON dynstat_wvel_max             =   6.3251420614844E-05
(PID.TID 0000.0001) %MON dynstat_wvel_min             =  -8.9133848803640E-05
(PID.TID 0000.0001) %MON dynstat_wvel_mean            =  -1.1912746535485E-07
(PID.TID 0000.0001) %MON dynstat_wvel_sd              =   1.2074073360084E-06
(PID.TID 0000.0001) %MON dynstat_wvel_del2            =   2.6004595761957E-09
(PID.TID 0000.0001) %MON dynstat_theta_max            =   1.6580424159836E+01
(PID.TID 0000.0001) %MON dynstat_theta_min            =   4.2490273480850E+00
(PID.TID 0000.0001) %MON dynstat_theta_mean           =   7.6151898269808E+00
(PID.TID 0000.0001) %MON dynstat_theta_sd             =   3.6062112758704E+00
(PID.TID 0000.0001) %MON dynstat_theta_del2           =   2.1405054602071E-07
(PID.TID 0000.0001) %MON dynstat_salt_max             =   3.4471506613868E+01
(PID.TID 0000.0001) %MON dynstat_salt_min             =   3.3629978268667E+01
(PID.TID 0000.0001) %MON dynstat_salt_mean            =   3.4187264627894E+01
(PID.TID 0000.0001) %MON dynstat_salt_sd              =   2.7103763435866E-01
(PID.TID 0000.0001) %MON dynstat_salt_del2            =   8.9062127826385E-09
(PID.TID 0000.0001) %MON trAdv_CFL_u_max              =   3.5191901173000E-03
(PID.TID 0000.0001) %MON trAdv_CFL_v_max              =   2.5690482411471E-03
(PID.TID 0000.0001) %MON trAdv_CFL_w_max              =   2.4721272556239E-03
(PID.TID 0000.0001) %MON advcfl_uvel_max              =   3.5045514747691E-03
(PID.TID 0000.0001) %MON advcfl_vvel_max              =   1.8732020138544E-03
(PID.TID 0000.0001) %MON advcfl_wvel_max              =   2.2950226294261E-03
(PID.TID 0000.0001) %MON advcfl_W_hf_max              =   2.4671493266331E-03
(PID.TID 0000.0001) %MON pe_b_mean                    =   2.3307883083411E-09
(PID.TID 0000.0001) %MON ke_max                       =   6.1890105842700E-03
(PID.TID 0000.0001) %MON ke_mean                      =   7.0841243651032E-06
(PID.TID 0000.0001) %MON ke_vol                       =   8.2760855027014E+14
(PID.TID 0000.0001) %MON vort_r_min                   =  -6.7031248174345E-05
(PID.TID 0000.0001) %MON vort_r_max                   =   8.6925463425377E-05
(PID.TID 0000.0001) %MON vort_a_mean                  =   6.9582958995909E-04
(PID.TID 0000.0001) %MON vort_a_sd                    =   1.4287354868910E-06
(PID.TID 0000.0001) %MON vort_p_mean                  =   7.0012686801198E-04
(PID.TID 0000.0001) %MON vort_p_sd                    =   9.4514379615641E-05
(PID.TID 0000.0001) %MON surfExpan_theta_mean         =  -5.9881622048696E-13
(PID.TID 0000.0001) %MON surfExpan_salt_mean          =   3.3479313286747E-21
(PID.TID 0000.0001) // =======================================================
(PID.TID 0000.0001) // End MONITOR dynamic field statistics
(PID.TID 0000.0001) // =======================================================
(PID.TID 0000.0001) // =======================================================
(PID.TID 0000.0001) // Begin OBCS MONITOR field statistics
(PID.TID 0000.0001) // =======================================================
(PID.TID 0000.0001) %MON obc_S_vVel_max               =   5.9074549349667E-02
(PID.TID 0000.0001) %MON obc_S_vVel_min               =  -3.1566417913812E-04
(PID.TID 0000.0001) %MON obc_S_vVel_mean              =  -8.2520039747875E-20
(PID.TID 0000.0001) %MON obc_S_vVel_sd                =   2.6495206477627E-03
(PID.TID 0000.0001) %MON obc_S_vVel_Int               =  -1.4011902749189E-10
(PID.TID 0000.0001) // =======================================================
(PID.TID 0000.0001) // End OBCS MONITOR field statistics
(PID.TID 0000.0001) // =======================================================
 EXTERNAL_FIELDS_LOAD,       600 : iP,iLd,i0,i1=   30   31   30   31 ; Wght=  0.5000000000  0.5000000000
 cg2d: Sum(rhs),rhsMax =   7.72715225139109E-13  1.09155571888547E-03
 EXTERNAL_FIELDS_LOAD,       601 : iP,iLd,i0,i1=   30   31   30   31 ; Wght=  0.4500000000  0.5500000000
 cg2d: Sum(rhs),rhsMax =  -2.93098878501041E-14  1.07778197283030E-03
 EXTERNAL_FIELDS_LOAD,       602 : iP,iLd,i0,i1=   30   31   30   31 ; Wght=  0.4000000000  0.6000000000
 cg2d: Sum(rhs),rhsMax =   4.95603558192670E-13  1.06938273879934E-03
 EXTERNAL_FIELDS_LOAD,       603 : iP,iLd,i0,i1=   30   31   30   31 ; Wght=  0.3500000000  0.6500000000
 cg2d: Sum(rhs),rhsMax =  -3.74811293113453E-13  1.06354382880957E-03
 EXTERNAL_FIELDS_LOAD,       604 : iP,iLd,i0,i1=   30   31   30   31 ; Wght=  0.3000000000  0.7000000000
 cg2d: Sum(rhs),rhsMax =   2.11386463888630E-13  1.05436154845526E-03
 EXTERNAL_FIELDS_LOAD,       605 : iP,iLd,i0,i1=   30   31   30   31 ; Wght=  0.2500000000  0.7500000000
 cg2d: Sum(rhs),rhsMax =   1.35447209004269E-13  1.04189850729879E-03
 EXTERNAL_FIELDS_LOAD,       606 : iP,iLd,i0,i1=   30   31   30   31 ; Wght=  0.2000000000  0.8000000000
 cg2d: Sum(rhs),rhsMax =   2.91322521661641E-13  1.02623080513896E-03
 EXTERNAL_FIELDS_LOAD,       607 : iP,iLd,i0,i1=   30   31   30   31 ; Wght=  0.1500000000  0.8500000000
 cg2d: Sum(rhs),rhsMax =   1.08624220729325E-12  1.00744733817903E-03
 EXTERNAL_FIELDS_LOAD,       608 : iP,iLd,i0,i1=   30   31   30   31 ; Wght=  0.1000000000  0.9000000000
 cg2d: Sum(rhs),rhsMax =   4.90496532279394E-13  9.86103007984300E-04
 EXTERNAL_FIELDS_LOAD,       609 : iP,iLd,i0,i1=   30   31   30   31 ; Wght=  0.0500000000  0.9500000000
 cg2d: Sum(rhs),rhsMax =   2.17575957250915E-12  9.78855944072852E-04
 EXTERNAL_FIELDS_LOAD,       610 : iP,iLd,i0,i1=   30   31   31   32 ; Wght=  1.0000000000  0.0000000000
 EXTERNAL_FIELDS_LOAD, it=       610 : Reading new data, i0,i1=   31   32 (prev=   30   31 )
(PID.TID 0000.0001)  MDS_READ_FIELD: opening global file: ../input/merid_halfgauss2p5hr_272x320.bin
(PID.TID 0000.0001)  MDS_READ_FIELD: opening global file: ../input/merid_halfgauss2p5hr_272x320.bin
 cg2d: Sum(rhs),rhsMax =   4.38538094726937E-13  1.02421364945502E-03
 EXTERNAL_FIELDS_LOAD,       611 : iP,iLd,i0,i1=   31   32   31   32 ; Wght=  0.9500000000  0.0500000000
 cg2d: Sum(rhs),rhsMax =  -7.61612994892857E-14  1.06932862882446E-03
 EXTERNAL_FIELDS_LOAD,       612 : iP,iLd,i0,i1=   31   32   31   32 ; Wght=  0.9000000000  0.1000000000
 cg2d: Sum(rhs),rhsMax =  -2.78665979180914E-13  1.11375565921669E-03
 EXTERNAL_FIELDS_LOAD,       613 : iP,iLd,i0,i1=   31   32   31   32 ; Wght=  0.8500000000  0.1500000000
 cg2d: Sum(rhs),rhsMax =   9.04165631254727E-13  1.16594676901754E-03
 EXTERNAL_FIELDS_LOAD,       614 : iP,iLd,i0,i1=   31   32   31   32 ; Wght=  0.8000000000  0.2000000000
 cg2d: Sum(rhs),rhsMax =  -7.96696042471012E-13  1.22649653890178E-03
 EXTERNAL_FIELDS_LOAD,       615 : iP,iLd,i0,i1=   31   32   31   32 ; Wght=  0.7500000000  0.2500000000
 cg2d: Sum(rhs),rhsMax =   6.29274410357539E-13  1.28634073633306E-03
 EXTERNAL_FIELDS_LOAD,       616 : iP,iLd,i0,i1=   31   32   31   32 ; Wght=  0.7000000000  0.3000000000
 cg2d: Sum(rhs),rhsMax =   5.59552404411079E-14  1.34508095125371E-03
 EXTERNAL_FIELDS_LOAD,       617 : iP,iLd,i0,i1=   31   32   31   32 ; Wght=  0.6500000000  0.3500000000
 cg2d: Sum(rhs),rhsMax =   8.53095372121970E-13  1.40232157479081E-03
 EXTERNAL_FIELDS_LOAD,       618 : iP,iLd,i0,i1=   31   32   31   32 ; Wght=  0.6000000000  0.4000000000
 cg2d: Sum(rhs),rhsMax =  -1.43884903991420E-13  1.45767315746533E-03
 EXTERNAL_FIELDS_LOAD,       619 : iP,iLd,i0,i1=   31   32   31   32 ; Wght=  0.5500000000  0.4500000000
 cg2d: Sum(rhs),rhsMax =   4.26325641456060E-13  1.51075569971361E-03
(PID.TID 0000.0001)      cg2d_init_res =   6.19002720203296E-01
(PID.TID 0000.0001)      cg2d_iters(min,last) =      -1      34
(PID.TID 0000.0001)      cg2d_last_res =   6.73270522575290E-08
(PID.TID 0000.0001) // =======================================================
(PID.TID 0000.0001) // Begin MONITOR dynamic field statistics
(PID.TID 0000.0001) // =======================================================
(PID.TID 0000.0001) %MON time_tsnumber                =                   620
(PID.TID 0000.0001) %MON time_secondsf                =   3.7200000000000E+04
(PID.TID 0000.0001) %MON dynstat_eta_max              =   1.8791327698752E-02
(PID.TID 0000.0001) %MON dynstat_eta_min              =  -1.5897861206125E-02
(PID.TID 0000.0001) %MON dynstat_eta_mean             =  -4.6064902802403E-20
(PID.TID 0000.0001) %MON dynstat_eta_sd               =   7.3774633730088E-04
(PID.TID 0000.0001) %MON dynstat_eta_del2             =   4.1238303073961E-07
(PID.TID 0000.0001) %MON dynstat_uvel_max             =   1.0220843812045E-01
(PID.TID 0000.0001) %MON dynstat_uvel_min             =  -3.5248822938344E-02
(PID.TID 0000.0001) %MON dynstat_uvel_mean            =   5.1993672484316E-05
(PID.TID 0000.0001) %MON dynstat_uvel_sd              =   3.5998461907227E-03
(PID.TID 0000.0001) %MON dynstat_uvel_del2            =   4.3104488595800E-07
(PID.TID 0000.0001) %MON dynstat_vvel_max             =   3.2453250813737E-02
(PID.TID 0000.0001) %MON dynstat_vvel_min             =  -5.6301755933473E-02
(PID.TID 0000.0001) %MON dynstat_vvel_mean            =  -1.5710913628958E-05
(PID.TID 0000.0001) %MON dynstat_vvel_sd              =   1.0601367793163E-03
(PID.TID 0000.0001) %MON dynstat_vvel_del2            =   4.0555875115624E-07
(PID.TID 0000.0001) %MON dynstat_wvel_max             =   7.3015737872828E-05
(PID.TID 0000.0001) %MON dynstat_wvel_min             =  -7.8817075156690E-05
(PID.TID 0000.0001) %MON dynstat_wvel_mean            =   9.5702458050730E-09
(PID.TID 0000.0001) %MON dynstat_wvel_sd              =   1.1328988064073E-06
(PID.TID 0000.0001) %MON dynstat_wvel_del2            =   2.5171199351091E-09
(PID.TID 0000.0001) %MON dynstat_theta_max            =   1.6580387819677E+01
(PID.TID 0000.0001) %MON dynstat_theta_min            =   4.2490008864694E+00
(PID.TID 0000.0001) %MON dynstat_theta_mean           =   7.6151909547518E+00
(PID.TID 0000.0001) %MON dynstat_theta_sd             =   3.6062111757907E+00
(PID.TID 0000.0001) %MON dynstat_theta_del2           =   2.0902201799384E-07
(PID.TID 0000.0001) %MON dynstat_salt_max             =   3.4471509591063E+01
(PID.TID 0000.0001) %MON dynstat_salt_min             =   3.3629976964891E+01
(PID.TID 0000.0001) %MON dynstat_salt_mean            =   3.4187264557533E+01
(PID.TID 0000.0001) %MON dynstat_salt_sd              =   2.7103762527965E-01
(PID.TID 0000.0001) %MON dynstat_salt_del2            =   8.7325086954777E-09
(PID.TID 0000.0001) %MON trAdv_CFL_u_max              =   3.0830420712661E-03
(PID.TID 0000.0001) %MON trAdv_CFL_v_max              =   2.2092004568049E-03
(PID.TID 0000.0001) %MON trAdv_CFL_w_max              =   2.1682574186684E-03
(PID.TID 0000.0001) %MON advcfl_uvel_max              =   3.0533527283363E-03
(PID.TID 0000.0001) %MON advcfl_vvel_max              =   1.6811512670490E-03
(PID.TID 0000.0001) %MON advcfl_wvel_max              =   1.9947021768412E-03
(PID.TID 0000.0001) %MON advcfl_W_hf_max              =   2.1443048401043E-03
(PID.TID 0000.0001) %MON pe_b_mean                    =   2.8532261469527E-09
(PID.TID 0000.0001) %MON ke_max                       =   6.1681819024558E-03
(PID.TID 0000.0001) %MON ke_mean                      =   7.0425531523140E-06
(PID.TID 0000.0001) %MON ke_vol                       =   8.2760855027014E+14
(PID.TID 0000.0001) %MON vort_r_min                   =  -5.6014481265080E-05
(PID.TID 0000.0001) %MON vort_r_max                   =   6.7023509193153E-05
(PID.TID 0000.0001) %MON vort_a_mean                  =   6.9582958995909E-04
(PID.TID 0000.0001) %MON vort_a_sd                    =   1.4317061047269E-06
(PID.TID 0000.0001) %MON vort_p_mean                  =   7.0012686801198E-04
(PID.TID 0000.0001) %MON vort_p_sd                    =   9.4511749455431E-05
(PID.TID 0000.0001) %MON surfExpan_theta_mean         =  -1.6312051487289E-12
(PID.TID 0000.0001) %MON surfExpan_salt_mean          =   1.0487991263047E-21
(PID.TID 0000.0001) // =======================================================
(PID.TID 0000.0001) // End MONITOR dynamic field statistics
(PID.TID 0000.0001) // =======================================================
(PID.TID 0000.0001) // =======================================================
(PID.TID 0000.0001) // Begin OBCS MONITOR field statistics
(PID.TID 0000.0001) // =======================================================
(PID.TID 0000.0001) %MON obc_S_vVel_max               =   7.1530902814065E-05
(PID.TID 0000.0001) %MON obc_S_vVel_min               =  -7.2155565173350E-03
(PID.TID 0000.0001) %MON obc_S_vVel_mean              =   7.0970581852128E-21
(PID.TID 0000.0001) %MON obc_S_vVel_sd                =   3.2343495422430E-04
(PID.TID 0000.0001) %MON obc_S_vVel_Int               =   1.2050804798491E-11
(PID.TID 0000.0001) // =======================================================
(PID.TID 0000.0001) // End OBCS MONITOR field statistics
(PID.TID 0000.0001) // =======================================================
 EXTERNAL_FIELDS_LOAD,       620 : iP,iLd,i0,i1=   31   32   31   32 ; Wght=  0.5000000000  0.5000000000
 cg2d: Sum(rhs),rhsMax =   9.50350909079134E-14  1.56120183789075E-03
 EXTERNAL_FIELDS_LOAD,       621 : iP,iLd,i0,i1=   31   32   31   32 ; Wght=  0.4500000000  0.5500000000
 cg2d: Sum(rhs),rhsMax =   7.89590615113411E-13  1.60865989054643E-03
 EXTERNAL_FIELDS_LOAD,       622 : iP,iLd,i0,i1=   31   32   31   32 ; Wght=  0.4000000000  0.6000000000
 cg2d: Sum(rhs),rhsMax =  -4.44089209850063E-14  1.65279673189707E-03
 EXTERNAL_FIELDS_LOAD,       623 : iP,iLd,i0,i1=   31   32   31   32 ; Wght=  0.3500000000  0.6500000000
 cg2d: Sum(rhs),rhsMax =  -3.64153152077051E-13  1.69566072964634E-03
 EXTERNAL_FIELDS_LOAD,       624 : iP,iLd,i0,i1=   31   32   31   32 ; Wght=  0.3000000000  0.7000000000
 cg2d: Sum(rhs),rhsMax =   5.00044450291171E-13  1.74662518234449E-03
 EXTERNAL_FIELDS_LOAD,       625 : iP,iLd,i0,i1=   31   32   31   32 ; Wght=  0.2500000000  0.7500000000
 cg2d: Sum(rhs),rhsMax =   4.88498130835069E-13  1.79476611245296E-03
 EXTERNAL_FIELDS_LOAD,       626 : iP,iLd,i0,i1=   31   32   31   32 ; Wght=  0.2000000000  0.8000000000
 cg2d: Sum(rhs),rhsMax =   4.62740956663765E-13  1.83991452083546E-03
 EXTERNAL_FIELDS_LOAD,       627 : iP,iLd,i0,i1=   31   32   31   32 ; Wght=  0.1500000000  0.8500000000
 cg2d: Sum(rhs),rhsMax =   1.02406971791424E-12  1.88191756765471E-03
 EXTERNAL_FIELDS_LOAD,       628 : iP,iLd,i0,i1=   31   32   31   32 ; Wght=  0.1000000000  0.9000000000
 cg2d: Sum(rhs),rhsMax =   2.85993451143440E-13  1.92063867603050E-03
 EXTERNAL_FIELDS_LOAD,       629 : iP,iLd,i0,i1=   31   32   31   32 ; Wght=  0.0500000000  0.9500000000
 cg2d: Sum(rhs),rhsMax =   2.97539770599542E-13  1.95595744787147E-03
 EXTERNAL_FIELDS_LOAD,       630 : iP,iLd,i0,i1=   31   32   32   33 ; Wght=  1.0000000000  0.0000000000
 EXTERNAL_FIELDS_LOAD, it=       630 : Reading new data, i0,i1=   32   33 (prev=   31   32 )
(PID.TID 0000.0001)  MDS_READ_FIELD: opening global file: ../input/merid_halfgauss2p5hr_272x320.bin
(PID.TID 0000.0001)  MDS_READ_FIELD: opening global file: ../input/merid_halfgauss2p5hr_272x320.bin
 cg2d: Sum(rhs),rhsMax =   5.17808018685173E-13  1.98776940125989E-03
 EXTERNAL_FIELDS_LOAD,       631 : iP,iLd,i0,i1=   32   33   32   33 ; Wght=  0.9500000000  0.0500000000
 cg2d: Sum(rhs),rhsMax =   1.00364161426114E-13  2.01598554178761E-03
 EXTERNAL_FIELDS_LOAD,       632 : iP,iLd,i0,i1=   32   33   32   33 ; Wght=  0.9000000000  0.1000000000
 cg2d: Sum(rhs),rhsMax =   1.37667655053519E-13  2.04053178299122E-03
 EXTERNAL_FIELDS_LOAD,       633 : iP,iLd,i0,i1=   32   33   32   33 ; Wght=  0.8500000000  0.1500000000
 cg2d: Sum(rhs),rhsMax =  -8.61533067109121E-14  2.06134823347038E-03
 EXTERNAL_FIELDS_LOAD,       634 : iP,iLd,i0,i1=   32   33   32   33 ; Wght=  0.8000000000  0.2000000000
 cg2d: Sum(rhs),rhsMax =   1.41664457942170E-13  2.08448183255176E-03
 EXTERNAL_FIELDS_LOAD,       635 : iP,iLd,i0,i1=   32   33   32   33 ; Wght=  0.7500000000  0.2500000000
 cg2d: Sum(rhs),rhsMax =   1.01252339845814E-13  2.11714302087790E-03
 EXTERNAL_FIELDS_LOAD,       636 : iP,iLd,i0,i1=   32   33   32   33 ; Wght=  0.7000000000  0.3000000000
 cg2d: Sum(rhs),rhsMax =  -1.16795462190566E-13  2.14683950822438E-03
 EXTERNAL_FIELDS_LOAD,       637 : iP,iLd,i0,i1=   32   33   32   33 ; Wght=  0.6500000000  0.3500000000
 cg2d: Sum(rhs),rhsMax =   3.19744231092045E-13  2.17360270832061E-03
 EXTERNAL_FIELDS_LOAD,       638 : iP,iLd,i0,i1=   32   33   32   33 ; Wght=  0.6000000000  0.4000000000
 cg2d: Sum(rhs),rhsMax =   1.23456800338317E-13  2.19746900049370E-03
 EXTERNAL_FIELDS_LOAD,       639 : iP,iLd,i0,i1=   32   33   32   33 ; Wght=  0.5500000000  0.4500000000
 cg2d: Sum(rhs),rhsMax =   1.54543045027822E-13  2.21847727327851E-03
(PID.TID 0000.0001)      cg2d_init_res =   7.56675225245015E-01
(PID.TID 0000.0001)      cg2d_iters(min,last) =      -1      34
(PID.TID 0000.0001)      cg2d_last_res =   7.94788343091453E-08
(PID.TID 0000.0001) // =======================================================
(PID.TID 0000.0001) // Begin MONITOR dynamic field statistics
(PID.TID 0000.0001) // =======================================================
(PID.TID 0000.0001) %MON time_tsnumber                =                   640
(PID.TID 0000.0001) %MON time_secondsf                =   3.8400000000000E+04
(PID.TID 0000.0001) %MON dynstat_eta_max              =   1.3658827202449E-02
(PID.TID 0000.0001) %MON dynstat_eta_min              =  -2.0729791857380E-02
(PID.TID 0000.0001) %MON dynstat_eta_mean             =  -3.1192519897627E-20
(PID.TID 0000.0001) %MON dynstat_eta_sd               =   5.9055320075297E-04
(PID.TID 0000.0001) %MON dynstat_eta_del2             =   4.0118367275609E-07
(PID.TID 0000.0001) %MON dynstat_uvel_max             =   8.5364118338168E-02
(PID.TID 0000.0001) %MON dynstat_uvel_min             =  -3.8750562678220E-02
(PID.TID 0000.0001) %MON dynstat_uvel_mean            =   1.3723228050704E-05
(PID.TID 0000.0001) %MON dynstat_uvel_sd              =   1.6534070617396E-03
(PID.TID 0000.0001) %MON dynstat_uvel_del2            =   4.0408113239352E-07
(PID.TID 0000.0001) %MON dynstat_vvel_max             =   2.8926734309927E-02
(PID.TID 0000.0001) %MON dynstat_vvel_min             =  -8.5440960622393E-02
(PID.TID 0000.0001) %MON dynstat_vvel_mean            =  -6.6100843736938E-05
(PID.TID 0000.0001) %MON dynstat_vvel_sd              =   3.3593155102526E-03
(PID.TID 0000.0001) %MON dynstat_vvel_del2            =   3.8037767563462E-07
(PID.TID 0000.0001) %MON dynstat_wvel_max             =   8.1399246789411E-05
(PID.TID 0000.0001) %MON dynstat_wvel_min             =  -6.8002143850014E-05
(PID.TID 0000.0001) %MON dynstat_wvel_mean            =   1.3145052598700E-07
(PID.TID 0000.0001) %MON dynstat_wvel_sd              =   1.3961245925748E-06
(PID.TID 0000.0001) %MON dynstat_wvel_del2            =   2.4322201493583E-09
(PID.TID 0000.0001) %MON dynstat_theta_max            =   1.6580348342258E+01
(PID.TID 0000.0001) %MON dynstat_theta_min            =   4.2489709121474E+00
(PID.TID 0000.0001) %MON dynstat_theta_mean           =   7.6151893464786E+00
(PID.TID 0000.0001) %MON dynstat_theta_sd             =   3.6062081256196E+00
(PID.TID 0000.0001) %MON dynstat_theta_del2           =   2.0389189687903E-07
(PID.TID 0000.0001) %MON dynstat_salt_max             =   3.4471512963971E+01
(PID.TID 0000.0001) %MON dynstat_salt_min             =   3.3629975487348E+01
(PID.TID 0000.0001) %MON dynstat_salt_mean            =   3.4187264653600E+01
(PID.TID 0000.0001) %MON dynstat_salt_sd              =   2.7103748238713E-01
(PID.TID 0000.0001) %MON dynstat_salt_del2            =   8.5329165888720E-09
(PID.TID 0000.0001) %MON trAdv_CFL_u_max              =   2.5649901013513E-03
(PID.TID 0000.0001) %MON trAdv_CFL_v_max              =   2.5147558141037E-03
(PID.TID 0000.0001) %MON trAdv_CFL_w_max              =   1.6627351718790E-03
(PID.TID 0000.0001) %MON advcfl_uvel_max              =   2.5501491699022E-03
(PID.TID 0000.0001) %MON advcfl_vvel_max              =   2.5512380000715E-03
(PID.TID 0000.0001) %MON advcfl_wvel_max              =   1.5255035102239E-03
(PID.TID 0000.0001) %MON advcfl_W_hf_max              =   1.6399162734907E-03
(PID.TID 0000.0001) %MON pe_b_mean                    =   1.8282691309778E-09
(PID.TID 0000.0001) %MON ke_max                       =   4.4478471047828E-03
(PID.TID 0000.0001) %MON ke_mean                      =   7.0018571356600E-06
(PID.TID 0000.0001) %MON ke_vol                       =   8.2760855027014E+14
(PID.TID 0000.0001) %MON vort_r_min                   =  -4.6989223325594E-05
(PID.TID 0000.0001) %MON vort_r_max                   =   4.2653188357927E-05
(PID.TID 0000.0001) %MON vort_a_mean                  =   6.9582958995909E-04
(PID.TID 0000.0001) %MON vort_a_sd                    =   1.4275475626067E-06
(PID.TID 0000.0001) %MON vort_p_mean                  =   7.0012686801198E-04
(PID.TID 0000.0001) %MON vort_p_sd                    =   9.4512181199019E-05
(PID.TID 0000.0001) %MON surfExpan_theta_mean         =  -7.2740793607078E-14
(PID.TID 0000.0001) %MON surfExpan_salt_mean          =   5.5812565270412E-21
(PID.TID 0000.0001) // =======================================================
(PID.TID 0000.0001) // End MONITOR dynamic field statistics
(PID.TID 0000.0001) // =======================================================
(PID.TID 0000.0001) // =======================================================
(PID.TID 0000.0001) // Begin OBCS MONITOR field statistics
(PID.TID 0000.0001) // =======================================================
(PID.TID 0000.0001) %MON obc_S_vVel_max               =   3.1534469720859E-04
(PID.TID 0000.0001) %MON obc_S_vVel_min               =  -6.8591340147754E-02
(PID.TID 0000.0001) %MON obc_S_vVel_mean              =   2.4371029994504E-20
(PID.TID 0000.0001) %MON obc_S_vVel_sd                =   3.0766637728930E-03
(PID.TID 0000.0001) %MON obc_S_vVel_Int               =   4.1382008930668E-11
(PID.TID 0000.0001) // =======================================================
(PID.TID 0000.0001) // End OBCS MONITOR field statistics
(PID.TID 0000.0001) // =======================================================
 EXTERNAL_FIELDS_LOAD,       640 : iP,iLd,i0,i1=   32   33   32   33 ; Wght=  0.5000000000  0.5000000000
 cg2d: Sum(rhs),rhsMax =   1.53210777398272E-13  2.23666652168680E-03
 EXTERNAL_FIELDS_LOAD,       641 : iP,iLd,i0,i1=   32   33   32   33 ; Wght=  0.4500000000  0.5500000000
 cg2d: Sum(rhs),rhsMax =   1.97175609173428E-13  2.25207354265221E-03
 EXTERNAL_FIELDS_LOAD,       642 : iP,iLd,i0,i1=   32   33   32   33 ; Wght=  0.4000000000  0.6000000000
 cg2d: Sum(rhs),rhsMax =   2.01172412062078E-13  2.26473077131393E-03
 EXTERNAL_FIELDS_LOAD,       643 : iP,iLd,i0,i1=   32   33   32   33 ; Wght=  0.3500000000  0.6500000000
 cg2d: Sum(rhs),rhsMax =   1.70530256582424E-13  2.27466429820997E-03
 EXTERNAL_FIELDS_LOAD,       644 : iP,iLd,i0,i1=   32   33   32   33 ; Wght=  0.3000000000  0.7000000000
 cg2d: Sum(rhs),rhsMax =   2.09388062444305E-13  2.28189210415772E-03
 EXTERNAL_FIELDS_LOAD,       645 : iP,iLd,i0,i1=   32   33   32   33 ; Wght=  0.2500000000  0.7500000000
 cg2d: Sum(rhs),rhsMax =   2.09832151654155E-13  2.28983802708558E-03
 EXTERNAL_FIELDS_LOAD,       646 : iP,iLd,i0,i1=   32   33   32   33 ; Wght=  0.2000000000  0.8000000000
 cg2d: Sum(rhs),rhsMax =   1.10134124042816E-13  2.31430984326488E-03
 EXTERNAL_FIELDS_LOAD,       647 : iP,iLd,i0,i1=   32   33   32   33 ; Wght=  0.1500000000  0.8500000000
 cg2d: Sum(rhs),rhsMax =   4.79616346638068E-14  2.33655078963139E-03
 EXTERNAL_FIELDS_LOAD,       648 : iP,iLd,i0,i1=   32   33   32   33 ; Wght=  0.1000000000  0.9000000000
 cg2d: Sum(rhs),rhsMax =   1.21014309684142E-13  2.35655429069565E-03
 EXTERNAL_FIELDS_LOAD,       649 : iP,iLd,i0,i1=   32   33   32   33 ; Wght=  0.0500000000  0.9500000000
 cg2d: Sum(rhs),rhsMax =   1.78190795452338E-13  2.37430205136640E-03
 EXTERNAL_FIELDS_LOAD,       650 : iP,iLd,i0,i1=   32   33   33   34 ; Wght=  1.0000000000  0.0000000000
 EXTERNAL_FIELDS_LOAD, it=       650 : Reading new data, i0,i1=   33   34 (prev=   32   33 )
(PID.TID 0000.0001)  MDS_READ_FIELD: opening global file: ../input/merid_halfgauss2p5hr_272x320.bin
(PID.TID 0000.0001)  MDS_READ_FIELD: opening global file: ../input/merid_halfgauss2p5hr_272x320.bin
 cg2d: Sum(rhs),rhsMax =  -6.67799149312032E-14  2.38976310115931E-03
 EXTERNAL_FIELDS_LOAD,       651 : iP,iLd,i0,i1=   33   34   33   34 ; Wght=  0.9500000000  0.0500000000
 cg2d: Sum(rhs),rhsMax =   4.74065231514942E-14  2.40289314173566E-03
 EXTERNAL_FIELDS_LOAD,       652 : iP,iLd,i0,i1=   33   34   33   34 ; Wght=  0.9000000000  0.1000000000
 cg2d: Sum(rhs),rhsMax =   3.84081655369073E-13  2.41363420668305E-03
 EXTERNAL_FIELDS_LOAD,       653 : iP,iLd,i0,i1=   33   34   33   34 ; Wght=  0.8500000000  0.1500000000
 cg2d: Sum(rhs),rhsMax =  -2.71560551823313E-13  2.42191463714074E-03
 EXTERNAL_FIELDS_LOAD,       654 : iP,iLd,i0,i1=   33   34   33   34 ; Wght=  0.8000000000  0.2000000000
 cg2d: Sum(rhs),rhsMax =  -3.03090885722668E-14  2.42764937166510E-03
 EXTERNAL_FIELDS_LOAD,       655 : iP,iLd,i0,i1=   33   34   33   34 ; Wght=  0.7500000000  0.2500000000
 cg2d: Sum(rhs),rhsMax =  -4.16999768049209E-13  2.43074054372340E-03
 EXTERNAL_FIELDS_LOAD,       656 : iP,iLd,i0,i1=   33   34   33   34 ; Wght=  0.7000000000  0.3000000000
 cg2d: Sum(rhs),rhsMax =   8.79296635503124E-14  2.43107837554802E-03
 EXTERNAL_FIELDS_LOAD,       657 : iP,iLd,i0,i1=   33   34   33   34 ; Wght=  0.6500000000  0.3500000000
 cg2d: Sum(rhs),rhsMax =   6.23945339839338E-14  2.42854235234697E-03
 EXTERNAL_FIELDS_LOAD,       658 : iP,iLd,i0,i1=   33   34   33   34 ; Wght=  0.6000000000  0.4000000000
 cg2d: Sum(rhs),rhsMax =   3.95239396766556E-13  2.42300265773848E-03
 EXTERNAL_FIELDS_LOAD,       659 : iP,iLd,i0,i1=   33   34   33   34 ; Wght=  0.5500000000  0.4500000000
 cg2d: Sum(rhs),rhsMax =  -2.01172412062078E-13  2.41432184675012E-03
(PID.TID 0000.0001)      cg2d_init_res =   4.94334663451339E-01
(PID.TID 0000.0001)      cg2d_iters(min,last) =      -1      33
(PID.TID 0000.0001)      cg2d_last_res =   8.95860774156367E-08
(PID.TID 0000.0001) // =======================================================
(PID.TID 0000.0001) // Begin MONITOR dynamic field statistics
(PID.TID 0000.0001) // =======================================================
(PID.TID 0000.0001) %MON time_tsnumber                =                   660
(PID.TID 0000.0001) %MON time_secondsf                =   3.9600000000000E+04
(PID.TID 0000.0001) %MON dynstat_eta_max              =   1.8187161913958E-02
(PID.TID 0000.0001) %MON dynstat_eta_min              =  -2.0519060858440E-02
(PID.TID 0000.0001) %MON dynstat_eta_mean             =   9.2129805604806E-21
(PID.TID 0000.0001) %MON dynstat_eta_sd               =   6.8467961739299E-04
(PID.TID 0000.0001) %MON dynstat_eta_del2             =   3.7806599940729E-07
(PID.TID 0000.0001) %MON dynstat_uvel_max             =   7.5393073796746E-02
(PID.TID 0000.0001) %MON dynstat_uvel_min             =  -4.4906107375812E-02
(PID.TID 0000.0001) %MON dynstat_uvel_mean            =  -3.7521914258705E-05
(PID.TID 0000.0001) %MON dynstat_uvel_sd              =   1.4046607671910E-03
(PID.TID 0000.0001) %MON dynstat_uvel_del2            =   3.6670560353379E-07
(PID.TID 0000.0001) %MON dynstat_vvel_max             =   2.8592896220844E-02
(PID.TID 0000.0001) %MON dynstat_vvel_min             =  -8.7749661920881E-02
(PID.TID 0000.0001) %MON dynstat_vvel_mean            =  -4.3614989536990E-05
(PID.TID 0000.0001) %MON dynstat_vvel_sd              =   3.4601336355028E-03
(PID.TID 0000.0001) %MON dynstat_vvel_del2            =   3.6852371320997E-07
(PID.TID 0000.0001) %MON dynstat_wvel_max             =   8.3742705840911E-05
(PID.TID 0000.0001) %MON dynstat_wvel_min             =  -6.0600439718059E-05
(PID.TID 0000.0001) %MON dynstat_wvel_mean            =   1.6727515874932E-07
(PID.TID 0000.0001) %MON dynstat_wvel_sd              =   1.4000561657940E-06
(PID.TID 0000.0001) %MON dynstat_wvel_del2            =   2.3770331253364E-09
(PID.TID 0000.0001) %MON dynstat_theta_max            =   1.6580323913877E+01
(PID.TID 0000.0001) %MON dynstat_theta_min            =   4.2489370135767E+00
(PID.TID 0000.0001) %MON dynstat_theta_mean           =   7.6151860557013E+00
(PID.TID 0000.0001) %MON dynstat_theta_sd             =   3.6062032984959E+00
(PID.TID 0000.0001) %MON dynstat_theta_del2           =   1.9956548626329E-07
(PID.TID 0000.0001) %MON dynstat_salt_max             =   3.4471516778057E+01
(PID.TID 0000.0001) %MON dynstat_salt_min             =   3.3629974358624E+01
(PID.TID 0000.0001) %MON dynstat_salt_mean            =   3.4187264853088E+01
(PID.TID 0000.0001) %MON dynstat_salt_sd              =   2.7103725858908E-01
(PID.TID 0000.0001) %MON dynstat_salt_del2            =   8.3631107679903E-09
(PID.TID 0000.0001) %MON trAdv_CFL_u_max              =   2.2661885089278E-03
(PID.TID 0000.0001) %MON trAdv_CFL_v_max              =   2.6457553805479E-03
(PID.TID 0000.0001) %MON trAdv_CFL_w_max              =   1.5434733473946E-03
(PID.TID 0000.0001) %MON advcfl_uvel_max              =   2.2523324177478E-03
(PID.TID 0000.0001) %MON advcfl_vvel_max              =   2.6201750349621E-03
(PID.TID 0000.0001) %MON advcfl_wvel_max              =   1.3443080530634E-03
(PID.TID 0000.0001) %MON advcfl_W_hf_max              =   1.4451311570432E-03
(PID.TID 0000.0001) %MON pe_b_mean                    =   2.4575189184195E-09
(PID.TID 0000.0001) %MON ke_max                       =   4.2533252680883E-03
(PID.TID 0000.0001) %MON ke_mean                      =   6.9595073629880E-06
(PID.TID 0000.0001) %MON ke_vol                       =   8.2760855027014E+14
(PID.TID 0000.0001) %MON vort_r_min                   =  -3.9513158504452E-05
(PID.TID 0000.0001) %MON vort_r_max                   =   3.7520191995992E-05
(PID.TID 0000.0001) %MON vort_a_mean                  =   6.9582958995909E-04
(PID.TID 0000.0001) %MON vort_a_sd                    =   1.4248553904577E-06
(PID.TID 0000.0001) %MON vort_p_mean                  =   7.0012686801198E-04
(PID.TID 0000.0001) %MON vort_p_sd                    =   9.4515606558472E-05
(PID.TID 0000.0001) %MON surfExpan_theta_mean         =   7.3549413298478E-13
(PID.TID 0000.0001) %MON surfExpan_salt_mean          =  -9.2458840624824E-21
(PID.TID 0000.0001) // =======================================================
(PID.TID 0000.0001) // End MONITOR dynamic field statistics
(PID.TID 0000.0001) // =======================================================
(PID.TID 0000.0001) // =======================================================
(PID.TID 0000.0001) // Begin OBCS MONITOR field statistics
(PID.TID 0000.0001) // =======================================================
(PID.TID 0000.0001) %MON obc_S_vVel_max               =   4.2167704861460E-04
(PID.TID 0000.0001) %MON obc_S_vVel_min               =  -8.4780999376689E-02
(PID.TID 0000.0001) %MON obc_S_vVel_mean              =  -2.8880340077279E-19
(PID.TID 0000.0001) %MON obc_S_vVel_sd                =   3.8040693326713E-03
(PID.TID 0000.0001) %MON obc_S_vVel_Int               =  -4.9038817451219E-10
(PID.TID 0000.0001) // =======================================================
(PID.TID 0000.0001) // End OBCS MONITOR field statistics
(PID.TID 0000.0001) // =======================================================
 EXTERNAL_FIELDS_LOAD,       660 : iP,iLd,i0,i1=   33   34   33   34 ; Wght=  0.5000000000  0.5000000000
 cg2d: Sum(rhs),rhsMax =  -1.74971148680925E-13  2.40235673030020E-03
 EXTERNAL_FIELDS_LOAD,       661 : iP,iLd,i0,i1=   33   34   33   34 ; Wght=  0.4500000000  0.5500000000
 cg2d: Sum(rhs),rhsMax =   2.09166017839379E-13  2.38696044222481E-03
 EXTERNAL_FIELDS_LOAD,       662 : iP,iLd,i0,i1=   33   34   33   34 ; Wght=  0.4000000000  0.6000000000
 cg2d: Sum(rhs),rhsMax =   3.70370401014952E-13  2.36798465775610E-03
 EXTERNAL_FIELDS_LOAD,       663 : iP,iLd,i0,i1=   33   34   33   34 ; Wght=  0.3500000000  0.6500000000
 cg2d: Sum(rhs),rhsMax =   7.54951656745106E-14  2.34879086531243E-03
 EXTERNAL_FIELDS_LOAD,       664 : iP,iLd,i0,i1=   33   34   33   34 ; Wght=  0.3000000000  0.7000000000
 cg2d: Sum(rhs),rhsMax =   3.42392780794398E-13  2.35128613572398E-03
 EXTERNAL_FIELDS_LOAD,       665 : iP,iLd,i0,i1=   33   34   33   34 ; Wght=  0.2500000000  0.7500000000
 cg2d: Sum(rhs),rhsMax =  -3.08197911635943E-13  2.35011290835986E-03
 EXTERNAL_FIELDS_LOAD,       666 : iP,iLd,i0,i1=   33   34   33   34 ; Wght=  0.2000000000  0.8000000000
 cg2d: Sum(rhs),rhsMax =  -3.01092484278342E-13  2.34513848071525E-03
 EXTERNAL_FIELDS_LOAD,       667 : iP,iLd,i0,i1=   33   34   33   34 ; Wght=  0.1500000000  0.8500000000
 cg2d: Sum(rhs),rhsMax =   3.40172334745148E-13  2.33624454502212E-03
 EXTERNAL_FIELDS_LOAD,       668 : iP,iLd,i0,i1=   33   34   33   34 ; Wght=  0.1000000000  0.9000000000
 cg2d: Sum(rhs),rhsMax =   1.29674049276218E-13  2.32332850282671E-03
 EXTERNAL_FIELDS_LOAD,       669 : iP,iLd,i0,i1=   33   34   33   34 ; Wght=  0.0500000000  0.9500000000
 cg2d: Sum(rhs),rhsMax =   3.31290550548147E-13  2.30630460024933E-03
 EXTERNAL_FIELDS_LOAD,       670 : iP,iLd,i0,i1=   33   34   34   35 ; Wght=  1.0000000000  0.0000000000
 EXTERNAL_FIELDS_LOAD, it=       670 : Reading new data, i0,i1=   34   35 (prev=   33   34 )
(PID.TID 0000.0001)  MDS_READ_FIELD: opening global file: ../input/merid_halfgauss2p5hr_272x320.bin
(PID.TID 0000.0001)  MDS_READ_FIELD: opening global file: ../input/merid_halfgauss2p5hr_272x320.bin
 cg2d: Sum(rhs),rhsMax =  -5.30242516560975E-13  2.28510486946040E-03
 EXTERNAL_FIELDS_LOAD,       671 : iP,iLd,i0,i1=   34   35   34   35 ; Wght=  0.9500000000  0.0500000000
 cg2d: Sum(rhs),rhsMax =  -3.33955085807247E-13  2.25967986446161E-03
 EXTERNAL_FIELDS_LOAD,       672 : iP,iLd,i0,i1=   34   35   34   35 ; Wght=  0.9000000000  0.1000000000
 cg2d: Sum(rhs),rhsMax =   8.88178419700125E-16  2.22999918203790E-03
 EXTERNAL_FIELDS_LOAD,       673 : iP,iLd,i0,i1=   34   35   34   35 ; Wght=  0.8500000000  0.1500000000
 cg2d: Sum(rhs),rhsMax =  -2.45137243837235E-13  2.19605176176027E-03
 EXTERNAL_FIELDS_LOAD,       674 : iP,iLd,i0,i1=   34   35   34   35 ; Wght=  0.8000000000  0.2000000000
 cg2d: Sum(rhs),rhsMax =  -7.72715225139109E-14  2.15784596217787E-03
 EXTERNAL_FIELDS_LOAD,       675 : iP,iLd,i0,i1=   34   35   34   35 ; Wght=  0.7500000000  0.2500000000
 cg2d: Sum(rhs),rhsMax =   1.23456800338317E-13  2.11540941382764E-03
 EXTERNAL_FIELDS_LOAD,       676 : iP,iLd,i0,i1=   34   35   34   35 ; Wght=  0.7000000000  0.3000000000
 cg2d: Sum(rhs),rhsMax =  -2.75335310107039E-14  2.07008698358995E-03
 EXTERNAL_FIELDS_LOAD,       677 : iP,iLd,i0,i1=   34   35   34   35 ; Wght=  0.6500000000  0.3500000000
 cg2d: Sum(rhs),rhsMax =   2.50466314355435E-13  2.05301719416584E-03
 EXTERNAL_FIELDS_LOAD,       678 : iP,iLd,i0,i1=   34   35   34   35 ; Wght=  0.6000000000  0.4000000000
 cg2d: Sum(rhs),rhsMax =  -6.60804744256893E-13  2.03247736382240E-03
 EXTERNAL_FIELDS_LOAD,       679 : iP,iLd,i0,i1=   34   35   34   35 ; Wght=  0.5500000000  0.4500000000
 cg2d: Sum(rhs),rhsMax =   1.90958360235527E-13  2.00848305249405E-03
(PID.TID 0000.0001)      cg2d_init_res =   5.52543509154984E-01
(PID.TID 0000.0001)      cg2d_iters(min,last) =      -1      33
(PID.TID 0000.0001)      cg2d_last_res =   9.89131340890187E-08
(PID.TID 0000.0001) // =======================================================
(PID.TID 0000.0001) // Begin MONITOR dynamic field statistics
(PID.TID 0000.0001) // =======================================================
(PID.TID 0000.0001) %MON time_tsnumber                =                   680
(PID.TID 0000.0001) %MON time_secondsf                =   4.0800000000000E+04
(PID.TID 0000.0001) %MON dynstat_eta_max              =   1.4559226977157E-02
(PID.TID 0000.0001) %MON dynstat_eta_min              =  -1.6084565591105E-02
(PID.TID 0000.0001) %MON dynstat_eta_mean             =  -7.0281880275667E-20
(PID.TID 0000.0001) %MON dynstat_eta_sd               =   6.9833390286795E-04
(PID.TID 0000.0001) %MON dynstat_eta_del2             =   3.5329677953730E-07
(PID.TID 0000.0001) %MON dynstat_uvel_max             =   6.9569252424332E-02
(PID.TID 0000.0001) %MON dynstat_uvel_min             =  -8.9510456262060E-02
(PID.TID 0000.0001) %MON dynstat_uvel_mean            =  -4.5357844364724E-05
(PID.TID 0000.0001) %MON dynstat_uvel_sd              =   3.4833068881303E-03
(PID.TID 0000.0001) %MON dynstat_uvel_del2            =   3.4994703263142E-07
(PID.TID 0000.0001) %MON dynstat_vvel_max             =   2.2946756867578E-02
(PID.TID 0000.0001) %MON dynstat_vvel_min             =  -4.9981134652594E-02
(PID.TID 0000.0001) %MON dynstat_vvel_mean            =   2.6503420850254E-05
(PID.TID 0000.0001) %MON dynstat_vvel_sd              =   1.3073869084923E-03
(PID.TID 0000.0001) %MON dynstat_vvel_del2            =   3.4587216971607E-07
(PID.TID 0000.0001) %MON dynstat_wvel_max             =   7.9103149136654E-05
(PID.TID 0000.0001) %MON dynstat_wvel_min             =  -6.6471820573788E-05
(PID.TID 0000.0001) %MON dynstat_wvel_mean            =   9.3621408993763E-08
(PID.TID 0000.0001) %MON dynstat_wvel_sd              =   1.1287343178310E-06
(PID.TID 0000.0001) %MON dynstat_wvel_del2            =   2.3134984633782E-09
(PID.TID 0000.0001) %MON dynstat_theta_max            =   1.6580298445864E+01
(PID.TID 0000.0001) %MON dynstat_theta_min            =   4.2489011120050E+00
(PID.TID 0000.0001) %MON dynstat_theta_mean           =   7.6151832372246E+00
(PID.TID 0000.0001) %MON dynstat_theta_sd             =   3.6061990342305E+00
(PID.TID 0000.0001) %MON dynstat_theta_del2           =   1.9707694245350E-07
(PID.TID 0000.0001) %MON dynstat_salt_max             =   3.4471520817627E+01
(PID.TID 0000.0001) %MON dynstat_salt_min             =   3.3629973721427E+01
(PID.TID 0000.0001) %MON dynstat_salt_mean            =   3.4187265025381E+01
(PID.TID 0000.0001) %MON dynstat_salt_sd              =   2.7103705996394E-01
(PID.TID 0000.0001) %MON dynstat_salt_del2            =   8.2842012434888E-09
(PID.TID 0000.0001) %MON trAdv_CFL_u_max              =   2.6425811492987E-03
(PID.TID 0000.0001) %MON trAdv_CFL_v_max              =   1.5639124090028E-03
(PID.TID 0000.0001) %MON trAdv_CFL_w_max              =   1.7162341176099E-03
(PID.TID 0000.0001) %MON advcfl_uvel_max              =   2.6740159703869E-03
(PID.TID 0000.0001) %MON advcfl_vvel_max              =   1.4924196671422E-03
(PID.TID 0000.0001) %MON advcfl_wvel_max              =   1.5953236937709E-03
(PID.TID 0000.0001) %MON advcfl_W_hf_max              =   1.7340474932292E-03
(PID.TID 0000.0001) %MON pe_b_mean                    =   2.5565148793302E-09
(PID.TID 0000.0001) %MON ke_max                       =   5.7736041663595E-03
(PID.TID 0000.0001) %MON ke_mean                      =   6.9182425059105E-06
(PID.TID 0000.0001) %MON ke_vol                       =   8.2760855027014E+14
(PID.TID 0000.0001) %MON vort_r_min                   =  -3.3808216459742E-05
(PID.TID 0000.0001) %MON vort_r_max                   =   3.5845682578245E-05
(PID.TID 0000.0001) %MON vort_a_mean                  =   6.9582958995909E-04
(PID.TID 0000.0001) %MON vort_a_sd                    =   1.4288782346554E-06
(PID.TID 0000.0001) %MON vort_p_mean                  =   7.0012686801198E-04
(PID.TID 0000.0001) %MON vort_p_sd                    =   9.4520040558111E-05
(PID.TID 0000.0001) %MON surfExpan_theta_mean         =  -1.5629941558332E-13
(PID.TID 0000.0001) %MON surfExpan_salt_mean          =  -2.8996211139013E-22
(PID.TID 0000.0001) // =======================================================
(PID.TID 0000.0001) // End MONITOR dynamic field statistics
(PID.TID 0000.0001) // =======================================================
(PID.TID 0000.0001) // =======================================================
(PID.TID 0000.0001) // Begin OBCS MONITOR field statistics
(PID.TID 0000.0001) // =======================================================
(PID.TID 0000.0001) %MON obc_S_vVel_max               =   2.5876709157322E-04
(PID.TID 0000.0001) %MON obc_S_vVel_min               =  -4.5445019066735E-02
(PID.TID 0000.0001) %MON obc_S_vVel_mean              =  -1.3926302854002E-20
(PID.TID 0000.0001) %MON obc_S_vVel_sd                =   2.0398881416202E-03
(PID.TID 0000.0001) %MON obc_S_vVel_Int               =  -2.3646862246096E-11
(PID.TID 0000.0001) // =======================================================
(PID.TID 0000.0001) // End OBCS MONITOR field statistics
(PID.TID 0000.0001) // =======================================================
 EXTERNAL_FIELDS_LOAD,       680 : iP,iLd,i0,i1=   34   35   34   35 ; Wght=  0.5000000000  0.5000000000
 cg2d: Sum(rhs),rhsMax =   2.93098878501041E-13  1.98106535241833E-03
 EXTERNAL_FIELDS_LOAD,       681 : iP,iLd,i0,i1=   34   35   34   35 ; Wght=  0.4500000000  0.5500000000
 cg2d: Sum(rhs),rhsMax =  -3.90798504668055E-14  1.95026975530720E-03
 EXTERNAL_FIELDS_LOAD,       682 : iP,iLd,i0,i1=   34   35   34   35 ; Wght=  0.4000000000  0.6000000000
 cg2d: Sum(rhs),rhsMax =  -7.10542735760100E-13  1.91615486598786E-03
 EXTERNAL_FIELDS_LOAD,       683 : iP,iLd,i0,i1=   34   35   34   35 ; Wght=  0.3500000000  0.6500000000
 cg2d: Sum(rhs),rhsMax =   3.46389583683049E-14  1.87879099135764E-03
 EXTERNAL_FIELDS_LOAD,       684 : iP,iLd,i0,i1=   34   35   34   35 ; Wght=  0.3000000000  0.7000000000
 cg2d: Sum(rhs),rhsMax =   3.16191517413245E-13  1.83825863824996E-03
 EXTERNAL_FIELDS_LOAD,       685 : iP,iLd,i0,i1=   34   35   34   35 ; Wght=  0.2500000000  0.7500000000
 cg2d: Sum(rhs),rhsMax =   5.17808018685173E-13  1.79464695390205E-03
 EXTERNAL_FIELDS_LOAD,       686 : iP,iLd,i0,i1=   34   35   34   35 ; Wght=  0.2000000000  0.8000000000
 cg2d: Sum(rhs),rhsMax =  -2.30926389122033E-14  1.74805214405455E-03
 EXTERNAL_FIELDS_LOAD,       687 : iP,iLd,i0,i1=   34   35   34   35 ; Wght=  0.1500000000  0.8500000000
 cg2d: Sum(rhs),rhsMax =   1.70530256582424E-13  1.70880626461243E-03
 EXTERNAL_FIELDS_LOAD,       688 : iP,iLd,i0,i1=   34   35   34   35 ; Wght=  0.1000000000  0.9000000000
 cg2d: Sum(rhs),rhsMax =   8.40216785036318E-13  1.67258946854202E-03
 EXTERNAL_FIELDS_LOAD,       689 : iP,iLd,i0,i1=   34   35   34   35 ; Wght=  0.0500000000  0.9500000000
 cg2d: Sum(rhs),rhsMax =   3.64153152077051E-13  1.63344187990099E-03
 EXTERNAL_FIELDS_LOAD,       690 : iP,iLd,i0,i1=   34   35   35   36 ; Wght=  1.0000000000  0.0000000000
 EXTERNAL_FIELDS_LOAD, it=       690 : Reading new data, i0,i1=   35   36 (prev=   34   35 )
(PID.TID 0000.0001)  MDS_READ_FIELD: opening global file: ../input/merid_halfgauss2p5hr_272x320.bin
(PID.TID 0000.0001)  MDS_READ_FIELD: opening global file: ../input/merid_halfgauss2p5hr_272x320.bin
 cg2d: Sum(rhs),rhsMax =   3.63264973657351E-13  1.59141271757743E-03
 EXTERNAL_FIELDS_LOAD,       691 : iP,iLd,i0,i1=   35   36   35   36 ; Wght=  0.9500000000  0.0500000000
 cg2d: Sum(rhs),rhsMax =   4.18332035678759E-13  1.56207572574004E-03
 EXTERNAL_FIELDS_LOAD,       692 : iP,iLd,i0,i1=   35   36   35   36 ; Wght=  0.9000000000  0.1000000000
 cg2d: Sum(rhs),rhsMax =   4.71622740860766E-13  1.54162305583994E-03
 EXTERNAL_FIELDS_LOAD,       693 : iP,iLd,i0,i1=   35   36   35   36 ; Wght=  0.8500000000  0.1500000000
 cg2d: Sum(rhs),rhsMax =  -1.11022302462516E-13  1.51883343499594E-03
 EXTERNAL_FIELDS_LOAD,       694 : iP,iLd,i0,i1=   35   36   35   36 ; Wght=  0.8000000000  0.2000000000
 cg2d: Sum(rhs),rhsMax =   2.86881629563140E-13  1.49371631477477E-03
 EXTERNAL_FIELDS_LOAD,       695 : iP,iLd,i0,i1=   35   36   35   36 ; Wght=  0.7500000000  0.2500000000
 cg2d: Sum(rhs),rhsMax =  -8.26005930321116E-14  1.49167580012547E-03
 EXTERNAL_FIELDS_LOAD,       696 : iP,iLd,i0,i1=   35   36   35   36 ; Wght=  0.7000000000  0.3000000000
 cg2d: Sum(rhs),rhsMax =   2.65565347490337E-13  1.51924356430695E-03
 EXTERNAL_FIELDS_LOAD,       697 : iP,iLd,i0,i1=   35   36   35   36 ; Wght=  0.6500000000  0.3500000000
 cg2d: Sum(rhs),rhsMax =   1.65201186064223E-13  1.54191778857060E-03
 EXTERNAL_FIELDS_LOAD,       698 : iP,iLd,i0,i1=   35   36   35   36 ; Wght=  0.6000000000  0.4000000000
 cg2d: Sum(rhs),rhsMax =   3.81916720471054E-13  1.57238293615801E-03
 EXTERNAL_FIELDS_LOAD,       699 : iP,iLd,i0,i1=   35   36   35   36 ; Wght=  0.5500000000  0.4500000000
 cg2d: Sum(rhs),rhsMax =   2.72670774847938E-13  1.64336533946914E-03
(PID.TID 0000.0001)      cg2d_init_res =   1.04283834507266E+00
(PID.TID 0000.0001)      cg2d_iters(min,last) =      -1      35
(PID.TID 0000.0001)      cg2d_last_res =   6.82156039024441E-08
(PID.TID 0000.0001) // =======================================================
(PID.TID 0000.0001) // Begin MONITOR dynamic field statistics
(PID.TID 0000.0001) // =======================================================
(PID.TID 0000.0001) %MON time_tsnumber                =                   700
(PID.TID 0000.0001) %MON time_secondsf                =   4.2000000000000E+04
(PID.TID 0000.0001) %MON dynstat_eta_max              =   1.5192721697136E-02
(PID.TID 0000.0001) %MON dynstat_eta_min              =  -1.5408106943020E-02
(PID.TID 0000.0001) %MON dynstat_eta_mean             =  -8.7654929332573E-20
(PID.TID 0000.0001) %MON dynstat_eta_sd               =   5.4453866154039E-04
(PID.TID 0000.0001) %MON dynstat_eta_del2             =   3.2969836187305E-07
(PID.TID 0000.0001) %MON dynstat_uvel_max             =   6.8215629676786E-02
(PID.TID 0000.0001) %MON dynstat_uvel_min             =  -8.6462366642762E-02
(PID.TID 0000.0001) %MON dynstat_uvel_mean            =  -2.0353576009581E-06
(PID.TID 0000.0001) %MON dynstat_uvel_sd              =   3.2812115637754E-03
(PID.TID 0000.0001) %MON dynstat_uvel_del2            =   3.4512646641742E-07
(PID.TID 0000.0001) %MON dynstat_vvel_max             =   5.0772827974305E-02
(PID.TID 0000.0001) %MON dynstat_vvel_min             =  -4.0878564319357E-02
(PID.TID 0000.0001) %MON dynstat_vvel_mean            =   6.5491831534287E-05
(PID.TID 0000.0001) %MON dynstat_vvel_sd              =   1.7293329155494E-03
(PID.TID 0000.0001) %MON dynstat_vvel_del2            =   3.1946103700165E-07
(PID.TID 0000.0001) %MON dynstat_wvel_max             =   7.5217721099233E-05
(PID.TID 0000.0001) %MON dynstat_wvel_min             =  -7.6753253914399E-05
(PID.TID 0000.0001) %MON dynstat_wvel_mean            =  -3.9988776867893E-08
(PID.TID 0000.0001) %MON dynstat_wvel_sd              =   1.1638423972079E-06
(PID.TID 0000.0001) %MON dynstat_wvel_del2            =   2.2700250732715E-09
(PID.TID 0000.0001) %MON dynstat_theta_max            =   1.6580269712482E+01
(PID.TID 0000.0001) %MON dynstat_theta_min            =   4.2488661058409E+00
(PID.TID 0000.0001) %MON dynstat_theta_mean           =   7.6151827262018E+00
(PID.TID 0000.0001) %MON dynstat_theta_sd             =   3.6061972998044E+00
(PID.TID 0000.0001) %MON dynstat_theta_del2           =   1.9426831256386E-07
(PID.TID 0000.0001) %MON dynstat_salt_max             =   3.4471524757328E+01
(PID.TID 0000.0001) %MON dynstat_salt_min             =   3.3629973514933E+01
(PID.TID 0000.0001) %MON dynstat_salt_mean            =   3.4187265058533E+01
(PID.TID 0000.0001) %MON dynstat_salt_sd              =   2.7103697571546E-01
(PID.TID 0000.0001) %MON dynstat_salt_del2            =   8.1996072190886E-09
(PID.TID 0000.0001) %MON trAdv_CFL_u_max              =   2.6270870760627E-03
(PID.TID 0000.0001) %MON trAdv_CFL_v_max              =   1.4263973986171E-03
(PID.TID 0000.0001) %MON trAdv_CFL_w_max              =   1.9945643597566E-03
(PID.TID 0000.0001) %MON advcfl_uvel_max              =   2.5829580017256E-03
(PID.TID 0000.0001) %MON advcfl_vvel_max              =   1.5160593602360E-03
(PID.TID 0000.0001) %MON advcfl_wvel_max              =   1.8420780939456E-03
(PID.TID 0000.0001) %MON advcfl_W_hf_max              =   2.0022587977669E-03
(PID.TID 0000.0001) %MON pe_b_mean                    =   1.5544598538433E-09
(PID.TID 0000.0001) %MON ke_max                       =   5.6824164797686E-03
(PID.TID 0000.0001) %MON ke_mean                      =   6.8793159524522E-06
(PID.TID 0000.0001) %MON ke_vol                       =   8.2760855027014E+14
(PID.TID 0000.0001) %MON vort_r_min                   =  -3.2481269076087E-05
(PID.TID 0000.0001) %MON vort_r_max                   =   4.1246484537672E-05
(PID.TID 0000.0001) %MON vort_a_mean                  =   6.9582958995909E-04
(PID.TID 0000.0001) %MON vort_a_sd                    =   1.4304789488990E-06
(PID.TID 0000.0001) %MON vort_p_mean                  =   7.0012686801198E-04
(PID.TID 0000.0001) %MON vort_p_sd                    =   9.4522276971144E-05
(PID.TID 0000.0001) %MON surfExpan_theta_mean         =  -1.1640048346390E-12
(PID.TID 0000.0001) %MON surfExpan_salt_mean          =   1.8919513650987E-21
(PID.TID 0000.0001) // =======================================================
(PID.TID 0000.0001) // End MONITOR dynamic field statistics
(PID.TID 0000.0001) // =======================================================
(PID.TID 0000.0001) // =======================================================
(PID.TID 0000.0001) // Begin OBCS MONITOR field statistics
(PID.TID 0000.0001) // =======================================================
(PID.TID 0000.0001) %MON obc_S_vVel_max               =   2.3350635132563E-02
(PID.TID 0000.0001) %MON obc_S_vVel_min               =  -1.2538989882538E-04
(PID.TID 0000.0001) %MON obc_S_vVel_mean              =   4.5695681239695E-20
(PID.TID 0000.0001) %MON obc_S_vVel_sd                =   1.0475043836577E-03
(PID.TID 0000.0001) %MON obc_S_vVel_Int               =   7.7591266745003E-11
(PID.TID 0000.0001) // =======================================================
(PID.TID 0000.0001) // End OBCS MONITOR field statistics
(PID.TID 0000.0001) // =======================================================
 EXTERNAL_FIELDS_LOAD,       700 : iP,iLd,i0,i1=   35   36   35   36 ; Wght=  0.5000000000  0.5000000000
 cg2d: Sum(rhs),rhsMax =   2.45137243837235E-13  1.70864602166162E-03
 EXTERNAL_FIELDS_LOAD,       701 : iP,iLd,i0,i1=   35   36   35   36 ; Wght=  0.4500000000  0.5500000000
 cg2d: Sum(rhs),rhsMax =   2.77111666946439E-13  1.76805375324264E-03
 EXTERNAL_FIELDS_LOAD,       702 : iP,iLd,i0,i1=   35   36   35   36 ; Wght=  0.4000000000  0.6000000000
 cg2d: Sum(rhs),rhsMax =   2.22932783344731E-13  1.82145038448240E-03
 EXTERNAL_FIELDS_LOAD,       703 : iP,iLd,i0,i1=   35   36   35   36 ; Wght=  0.3500000000  0.6500000000
 cg2d: Sum(rhs),rhsMax =   5.67990099398230E-13  1.86873103979859E-03
 EXTERNAL_FIELDS_LOAD,       704 : iP,iLd,i0,i1=   35   36   35   36 ; Wght=  0.3000000000  0.7000000000
 cg2d: Sum(rhs),rhsMax =   2.79110068390764E-13  1.90982399516322E-03
 EXTERNAL_FIELDS_LOAD,       705 : iP,iLd,i0,i1=   35   36   35   36 ; Wght=  0.2500000000  0.7500000000
 cg2d: Sum(rhs),rhsMax =   1.74527059471075E-13  1.94469025239846E-03
 EXTERNAL_FIELDS_LOAD,       706 : iP,iLd,i0,i1=   35   36   35   36 ; Wght=  0.2000000000  0.8000000000
 cg2d: Sum(rhs),rhsMax =   1.97397653778353E-13  1.97332282506466E-03
 EXTERNAL_FIELDS_LOAD,       707 : iP,iLd,i0,i1=   35   36   35   36 ; Wght=  0.1500000000  0.8500000000
 cg2d: Sum(rhs),rhsMax =  -2.38919994899334E-13  1.99574575567963E-03
 EXTERNAL_FIELDS_LOAD,       708 : iP,iLd,i0,i1=   35   36   35   36 ; Wght=  0.1000000000  0.9000000000
 cg2d: Sum(rhs),rhsMax =   4.72843986187854E-13  2.01201288614545E-03
 EXTERNAL_FIELDS_LOAD,       709 : iP,iLd,i0,i1=   35   36   35   36 ; Wght=  0.0500000000  0.9500000000
 cg2d: Sum(rhs),rhsMax =   2.23349116978966E-13  2.02220640573865E-03
 EXTERNAL_FIELDS_LOAD,       710 : iP,iLd,i0,i1=   35   36   36   37 ; Wght=  1.0000000000  0.0000000000
 EXTERNAL_FIELDS_LOAD, it=       710 : Reading new data, i0,i1=   36   37 (prev=   35   36 )
(PID.TID 0000.0001)  MDS_READ_FIELD: opening global file: ../input/merid_halfgauss2p5hr_272x320.bin
(PID.TID 0000.0001)  MDS_READ_FIELD: opening global file: ../input/merid_halfgauss2p5hr_272x320.bin
 cg2d: Sum(rhs),rhsMax =   1.19348975147204E-13  2.02643520296923E-03
 EXTERNAL_FIELDS_LOAD,       711 : iP,iLd,i0,i1=   36   37   36   37 ; Wght=  0.9500000000  0.0500000000
 cg2d: Sum(rhs),rhsMax =   4.75175454539567E-14  2.02483304911403E-03
 EXTERNAL_FIELDS_LOAD,       712 : iP,iLd,i0,i1=   36   37   36   37 ; Wght=  0.9000000000  0.1000000000
 cg2d: Sum(rhs),rhsMax =   2.23820961764432E-13  2.03043477750660E-03
 EXTERNAL_FIELDS_LOAD,       713 : iP,iLd,i0,i1=   36   37   36   37 ; Wght=  0.8500000000  0.1500000000
 cg2d: Sum(rhs),rhsMax =  -2.28705943072782E-14  2.08131734043246E-03
 EXTERNAL_FIELDS_LOAD,       714 : iP,iLd,i0,i1=   36   37   36   37 ; Wght=  0.8000000000  0.2000000000
 cg2d: Sum(rhs),rhsMax =   1.87849735766576E-13  2.12628523255543E-03
 EXTERNAL_FIELDS_LOAD,       715 : iP,iLd,i0,i1=   36   37   36   37 ; Wght=  0.7500000000  0.2500000000
 cg2d: Sum(rhs),rhsMax =   2.74891220897189E-13  2.16524382970024E-03
 EXTERNAL_FIELDS_LOAD,       716 : iP,iLd,i0,i1=   36   37   36   37 ; Wght=  0.7000000000  0.3000000000
 cg2d: Sum(rhs),rhsMax =   5.76427794385381E-13  2.19811654490478E-03
 EXTERNAL_FIELDS_LOAD,       717 : iP,iLd,i0,i1=   36   37   36   37 ; Wght=  0.6500000000  0.3500000000
 cg2d: Sum(rhs),rhsMax =  -3.47721851312599E-13  2.22484465707396E-03
 EXTERNAL_FIELDS_LOAD,       718 : iP,iLd,i0,i1=   36   37   36   37 ; Wght=  0.6000000000  0.4000000000
 cg2d: Sum(rhs),rhsMax =   6.92335078156248E-13  2.24538713003169E-03
 EXTERNAL_FIELDS_LOAD,       719 : iP,iLd,i0,i1=   36   37   36   37 ; Wght=  0.5500000000  0.4500000000
 cg2d: Sum(rhs),rhsMax =   1.50990331349021E-14  2.25972042949783E-03
(PID.TID 0000.0001)      cg2d_init_res =   4.84174881109961E-01
(PID.TID 0000.0001)      cg2d_iters(min,last) =      -1      33
(PID.TID 0000.0001)      cg2d_last_res =   9.18286809267771E-08
(PID.TID 0000.0001) // =======================================================
(PID.TID 0000.0001) // Begin MONITOR dynamic field statistics
(PID.TID 0000.0001) // =======================================================
(PID.TID 0000.0001) %MON time_tsnumber                =                   720
(PID.TID 0000.0001) %MON time_secondsf                =   4.3200000000000E+04
(PID.TID 0000.0001) %MON dynstat_eta_max              =   1.4943889253308E-02
(PID.TID 0000.0001) %MON dynstat_eta_min              =  -1.3930035698800E-02
(PID.TID 0000.0001) %MON dynstat_eta_mean             =  -6.8702512179584E-20
(PID.TID 0000.0001) %MON dynstat_eta_sd               =   6.5344406536769E-04
(PID.TID 0000.0001) %MON dynstat_eta_del2             =   3.1927366205939E-07
(PID.TID 0000.0001) %MON dynstat_uvel_max             =   6.4021378902924E-02
(PID.TID 0000.0001) %MON dynstat_uvel_min             =  -4.8186302961003E-02
(PID.TID 0000.0001) %MON dynstat_uvel_mean            =   4.3313270198074E-05
(PID.TID 0000.0001) %MON dynstat_uvel_sd              =   9.5683332496052E-04
(PID.TID 0000.0001) %MON dynstat_uvel_del2            =   3.2845671003256E-07
(PID.TID 0000.0001) %MON dynstat_vvel_max             =   8.9921425631222E-02
(PID.TID 0000.0001) %MON dynstat_vvel_min             =  -3.9183587821216E-02
(PID.TID 0000.0001) %MON dynstat_vvel_mean            =   3.1265396968444E-05
(PID.TID 0000.0001) %MON dynstat_vvel_sd              =   3.5758862940841E-03
(PID.TID 0000.0001) %MON dynstat_vvel_del2            =   3.0978890880990E-07
(PID.TID 0000.0001) %MON dynstat_wvel_max             =   7.3602389044816E-05
(PID.TID 0000.0001) %MON dynstat_wvel_min             =  -8.1378977387810E-05
(PID.TID 0000.0001) %MON dynstat_wvel_mean            =  -1.4717700088010E-07
(PID.TID 0000.0001) %MON dynstat_wvel_sd              =   1.4442808574542E-06
(PID.TID 0000.0001) %MON dynstat_wvel_del2            =   2.2763326098299E-09
(PID.TID 0000.0001) %MON dynstat_theta_max            =   1.6580237303597E+01
(PID.TID 0000.0001) %MON dynstat_theta_min            =   4.2488353121612E+00
(PID.TID 0000.0001) %MON dynstat_theta_mean           =   7.6151848346302E+00
(PID.TID 0000.0001) %MON dynstat_theta_sd             =   3.6061983858043E+00
(PID.TID 0000.0001) %MON dynstat_theta_del2           =   1.9015745773373E-07
(PID.TID 0000.0001) %MON dynstat_salt_max             =   3.4471528221922E+01
(PID.TID 0000.0001) %MON dynstat_salt_min             =   3.3629973605253E+01
(PID.TID 0000.0001) %MON dynstat_salt_mean            =   3.4187264932243E+01
(PID.TID 0000.0001) %MON dynstat_salt_sd              =   2.7103701934095E-01
(PID.TID 0000.0001) %MON dynstat_salt_del2            =   8.0459994399773E-09
(PID.TID 0000.0001) %MON trAdv_CFL_u_max              =   1.9193087164329E-03
(PID.TID 0000.0001) %MON trAdv_CFL_v_max              =   2.6539831346009E-03
(PID.TID 0000.0001) %MON trAdv_CFL_w_max              =   1.9879225341758E-03
(PID.TID 0000.0001) %MON advcfl_uvel_max              =   1.9126084117583E-03
(PID.TID 0000.0001) %MON advcfl_vvel_max              =   2.6850231600843E-03
(PID.TID 0000.0001) %MON advcfl_wvel_max              =   1.8383451389149E-03
(PID.TID 0000.0001) %MON advcfl_W_hf_max              =   1.9982012379510E-03
(PID.TID 0000.0001) %MON pe_b_mean                    =   2.2384062368447E-09
(PID.TID 0000.0001) %MON ke_max                       =   4.0931187407521E-03
(PID.TID 0000.0001) %MON ke_mean                      =   6.8405477584228E-06
(PID.TID 0000.0001) %MON ke_vol                       =   8.2760855027014E+14
(PID.TID 0000.0001) %MON vort_r_min                   =  -3.4659004974277E-05
(PID.TID 0000.0001) %MON vort_r_max                   =   3.1860943019271E-05
(PID.TID 0000.0001) %MON vort_a_mean                  =   6.9582958995909E-04
(PID.TID 0000.0001) %MON vort_a_sd                    =   1.4263624499676E-06
(PID.TID 0000.0001) %MON vort_p_mean                  =   7.0012686801198E-04
(PID.TID 0000.0001) %MON vort_p_sd                    =   9.4520617704604E-05
(PID.TID 0000.0001) %MON surfExpan_theta_mean         =  -4.2312914770915E-13
(PID.TID 0000.0001) %MON surfExpan_salt_mean          =   3.2903502001717E-22
(PID.TID 0000.0001) // =======================================================
(PID.TID 0000.0001) // End MONITOR dynamic field statistics
(PID.TID 0000.0001) // =======================================================
(PID.TID 0000.0001) // =======================================================
(PID.TID 0000.0001) // Begin OBCS MONITOR field statistics
(PID.TID 0000.0001) // =======================================================
(PID.TID 0000.0001) %MON obc_S_vVel_max               =   7.6374503472657E-02
(PID.TID 0000.0001) %MON obc_S_vVel_min               =  -3.7119880311401E-04
(PID.TID 0000.0001) %MON obc_S_vVel_mean              =   6.0793668228049E-20
(PID.TID 0000.0001) %MON obc_S_vVel_sd                =   3.4279018085041E-03
(PID.TID 0000.0001) %MON obc_S_vVel_Int               =   1.0322764865123E-10
(PID.TID 0000.0001) // =======================================================
(PID.TID 0000.0001) // End OBCS MONITOR field statistics
(PID.TID 0000.0001) // =======================================================
(PID.TID 0000.0001) %CHECKPOINT       720 ckptA
 EXTERNAL_FIELDS_LOAD,       720 : iP,iLd,i0,i1=   36   37   36   37 ; Wght=  0.5000000000  0.5000000000
 cg2d: Sum(rhs),rhsMax =   2.34479102800833E-13  2.26783834271530E-03
 EXTERNAL_FIELDS_LOAD,       721 : iP,iLd,i0,i1=   36   37   36   37 ; Wght=  0.4500000000  0.5500000000
 cg2d: Sum(rhs),rhsMax =   4.06785716222657E-13  2.26975180539718E-03
 EXTERNAL_FIELDS_LOAD,       722 : iP,iLd,i0,i1=   36   37   36   37 ; Wght=  0.4000000000  0.6000000000
 cg2d: Sum(rhs),rhsMax =   4.64517313503165E-13  2.26548873791505E-03
 EXTERNAL_FIELDS_LOAD,       723 : iP,iLd,i0,i1=   36   37   36   37 ; Wght=  0.3500000000  0.6500000000
 cg2d: Sum(rhs),rhsMax =   2.34479102800833E-13  2.25509389146822E-03
 EXTERNAL_FIELDS_LOAD,       724 : iP,iLd,i0,i1=   36   37   36   37 ; Wght=  0.3000000000  0.7000000000
 cg2d: Sum(rhs),rhsMax =  -5.03597163969971E-13  2.23862870341594E-03
 EXTERNAL_FIELDS_LOAD,       725 : iP,iLd,i0,i1=   36   37   36   37 ; Wght=  0.2500000000  0.7500000000
 cg2d: Sum(rhs),rhsMax =   4.00568467284756E-13  2.21617115959277E-03
 EXTERNAL_FIELDS_LOAD,       726 : iP,iLd,i0,i1=   36   37   36   37 ; Wght=  0.2000000000  0.8000000000
 cg2d: Sum(rhs),rhsMax =  -1.96287430753728E-13  2.18781566023413E-03
 EXTERNAL_FIELDS_LOAD,       727 : iP,iLd,i0,i1=   36   37   36   37 ; Wght=  0.1500000000  0.8500000000
 cg2d: Sum(rhs),rhsMax =   9.36140054363932E-13  2.15367288513740E-03
 EXTERNAL_FIELDS_LOAD,       728 : iP,iLd,i0,i1=   36   37   36   37 ; Wght=  0.1000000000  0.9000000000
 cg2d: Sum(rhs),rhsMax =   2.66453525910038E-15  2.16131810210361E-03
 EXTERNAL_FIELDS_LOAD,       729 : iP,iLd,i0,i1=   36   37   36   37 ; Wght=  0.0500000000  0.9500000000
 cg2d: Sum(rhs),rhsMax =  -7.19424519957101E-14  2.18179971845784E-03
 EXTERNAL_FIELDS_LOAD,       730 : iP,iLd,i0,i1=   36   37   37   38 ; Wght=  1.0000000000  0.0000000000
 EXTERNAL_FIELDS_LOAD, it=       730 : Reading new data, i0,i1=   37   38 (prev=   36   37 )
(PID.TID 0000.0001)  MDS_READ_FIELD: opening global file: ../input/merid_halfgauss2p5hr_272x320.bin
(PID.TID 0000.0001)  MDS_READ_FIELD: opening global file: ../input/merid_halfgauss2p5hr_272x320.bin
 cg2d: Sum(rhs),rhsMax =   6.44817532702291E-13  2.19590485467869E-03
 EXTERNAL_FIELDS_LOAD,       731 : iP,iLd,i0,i1=   37   38   37   38 ; Wght=  0.9500000000  0.0500000000
 cg2d: Sum(rhs),rhsMax =  -5.32907051820075E-15  2.20347054020372E-03
 EXTERNAL_FIELDS_LOAD,       732 : iP,iLd,i0,i1=   37   38   37   38 ; Wght=  0.9000000000  0.1000000000
 cg2d: Sum(rhs),rhsMax =   2.40696351738734E-13  2.20435681167936E-03
 EXTERNAL_FIELDS_LOAD,       733 : iP,iLd,i0,i1=   37   38   37   38 ; Wght=  0.8500000000  0.1500000000
 cg2d: Sum(rhs),rhsMax =  -5.32907051820075E-15  2.19844882643353E-03
 EXTERNAL_FIELDS_LOAD,       734 : iP,iLd,i0,i1=   37   38   37   38 ; Wght=  0.8000000000  0.2000000000
 cg2d: Sum(rhs),rhsMax =  -2.70006239588838E-13  2.18565883970573E-03
 EXTERNAL_FIELDS_LOAD,       735 : iP,iLd,i0,i1=   37   38   37   38 ; Wght=  0.7500000000  0.2500000000
 cg2d: Sum(rhs),rhsMax =  -3.55271367880050E-14  2.16592801932910E-03
 EXTERNAL_FIELDS_LOAD,       736 : iP,iLd,i0,i1=   37   38   37   38 ; Wght=  0.7000000000  0.3000000000
 cg2d: Sum(rhs),rhsMax =   4.67181848762266E-13  2.13922807314077E-03
 EXTERNAL_FIELDS_LOAD,       737 : iP,iLd,i0,i1=   37   38   37   38 ; Wght=  0.6500000000  0.3500000000
 cg2d: Sum(rhs),rhsMax =  -9.41469124882133E-14  2.10556266616754E-03
 EXTERNAL_FIELDS_LOAD,       738 : iP,iLd,i0,i1=   37   38   37   38 ; Wght=  0.6000000000  0.4000000000
 cg2d: Sum(rhs),rhsMax =   9.39692768042732E-13  2.06496860657634E-03
 EXTERNAL_FIELDS_LOAD,       739 : iP,iLd,i0,i1=   37   38   37   38 ; Wght=  0.5500000000  0.4500000000
 cg2d: Sum(rhs),rhsMax =   1.00897068477934E-12  2.01751678148692E-03
(PID.TID 0000.0001)      cg2d_init_res =   5.48502847976601E-01
(PID.TID 0000.0001)      cg2d_iters(min,last) =      -1      33
(PID.TID 0000.0001)      cg2d_last_res =   9.31010971322075E-08
(PID.TID 0000.0001) // =======================================================
(PID.TID 0000.0001) // Begin MONITOR dynamic field statistics
(PID.TID 0000.0001) // =======================================================
(PID.TID 0000.0001) %MON time_tsnumber                =                   740
(PID.TID 0000.0001) %MON time_secondsf                =   4.4400000000000E+04
(PID.TID 0000.0001) %MON dynstat_eta_max              =   1.4929502431435E-02
(PID.TID 0000.0001) %MON dynstat_eta_min              =  -1.0901212151861E-02
(PID.TID 0000.0001) %MON dynstat_eta_mean             =  -2.1584697313126E-20
(PID.TID 0000.0001) %MON dynstat_eta_sd               =   6.0691177497595E-04
(PID.TID 0000.0001) %MON dynstat_eta_del2             =   3.1619932878161E-07
(PID.TID 0000.0001) %MON dynstat_uvel_max             =   5.7587787134075E-02
(PID.TID 0000.0001) %MON dynstat_uvel_min             =  -3.7560161377627E-02
(PID.TID 0000.0001) %MON dynstat_uvel_mean            =   4.1098017911921E-05
(PID.TID 0000.0001) %MON dynstat_uvel_sd              =   2.0365831830023E-03
(PID.TID 0000.0001) %MON dynstat_uvel_del2            =   3.1158040975392E-07
(PID.TID 0000.0001) %MON dynstat_vvel_max             =   7.9781076892636E-02
(PID.TID 0000.0001) %MON dynstat_vvel_min             =  -2.9558732899010E-02
(PID.TID 0000.0001) %MON dynstat_vvel_mean            =  -3.6257865180432E-05
(PID.TID 0000.0001) %MON dynstat_vvel_sd              =   3.0795479571957E-03
(PID.TID 0000.0001) %MON dynstat_vvel_del2            =   3.0517138986236E-07
(PID.TID 0000.0001) %MON dynstat_wvel_max             =   7.3780963200668E-05
(PID.TID 0000.0001) %MON dynstat_wvel_min             =  -8.7418210365284E-05
(PID.TID 0000.0001) %MON dynstat_wvel_mean            =  -1.5844674516035E-07
(PID.TID 0000.0001) %MON dynstat_wvel_sd              =   1.3937261427048E-06
(PID.TID 0000.0001) %MON dynstat_wvel_del2            =   2.2655122384537E-09
(PID.TID 0000.0001) %MON dynstat_theta_max            =   1.6580203156821E+01
(PID.TID 0000.0001) %MON dynstat_theta_min            =   4.2488086591642E+00
(PID.TID 0000.0001) %MON dynstat_theta_mean           =   7.6151881883207E+00
(PID.TID 0000.0001) %MON dynstat_theta_sd             =   3.6062007669866E+00
(PID.TID 0000.0001) %MON dynstat_theta_del2           =   1.8743650495843E-07
(PID.TID 0000.0001) %MON dynstat_salt_max             =   3.4471531221485E+01
(PID.TID 0000.0001) %MON dynstat_salt_min             =   3.3629973913892E+01
(PID.TID 0000.0001) %MON dynstat_salt_mean            =   3.4187264728821E+01
(PID.TID 0000.0001) %MON dynstat_salt_sd              =   2.7103712211987E-01
(PID.TID 0000.0001) %MON dynstat_salt_del2            =   7.9203385498244E-09
(PID.TID 0000.0001) %MON trAdv_CFL_u_max              =   1.7250196935345E-03
(PID.TID 0000.0001) %MON trAdv_CFL_v_max              =   2.4217473928766E-03
(PID.TID 0000.0001) %MON trAdv_CFL_w_max              =   1.9466169255212E-03
(PID.TID 0000.0001) %MON advcfl_uvel_max              =   1.7203650715948E-03
(PID.TID 0000.0001) %MON advcfl_vvel_max              =   2.3822357985260E-03
(PID.TID 0000.0001) %MON advcfl_wvel_max              =   1.7759333652471E-03
(PID.TID 0000.0001) %MON advcfl_W_hf_max              =   1.9303623535295E-03
(PID.TID 0000.0001) %MON pe_b_mean                    =   1.9309596478396E-09
(PID.TID 0000.0001) %MON ke_max                       =   4.7233870551601E-03
(PID.TID 0000.0001) %MON ke_mean                      =   6.8039149246191E-06
(PID.TID 0000.0001) %MON ke_vol                       =   8.2760855027014E+14
(PID.TID 0000.0001) %MON vort_r_min                   =  -3.1147888960264E-05
(PID.TID 0000.0001) %MON vort_r_max                   =   3.1512144188051E-05
(PID.TID 0000.0001) %MON vort_a_mean                  =   6.9582958995909E-04
(PID.TID 0000.0001) %MON vort_a_sd                    =   1.4256799162141E-06
(PID.TID 0000.0001) %MON vort_p_mean                  =   7.0012686801198E-04
(PID.TID 0000.0001) %MON vort_p_sd                    =   9.4516554033745E-05
(PID.TID 0000.0001) %MON surfExpan_theta_mean         =   1.3047856195618E-13
(PID.TID 0000.0001) %MON surfExpan_salt_mean          =   7.6192171822725E-21
(PID.TID 0000.0001) // =======================================================
(PID.TID 0000.0001) // End MONITOR dynamic field statistics
(PID.TID 0000.0001) // =======================================================
(PID.TID 0000.0001) // =======================================================
(PID.TID 0000.0001) // Begin OBCS MONITOR field statistics
(PID.TID 0000.0001) // =======================================================
(PID.TID 0000.0001) %MON obc_S_vVel_max               =   7.9610227661064E-02
(PID.TID 0000.0001) %MON obc_S_vVel_min               =  -4.1195827427997E-04
(PID.TID 0000.0001) %MON obc_S_vVel_mean              =   8.9650574622641E-20
(PID.TID 0000.0001) %MON obc_S_vVel_sd                =   3.5739016616751E-03
(PID.TID 0000.0001) %MON obc_S_vVel_Int               =   1.5222667570924E-10
(PID.TID 0000.0001) // =======================================================
(PID.TID 0000.0001) // End OBCS MONITOR field statistics
(PID.TID 0000.0001) // =======================================================
 EXTERNAL_FIELDS_LOAD,       740 : iP,iLd,i0,i1=   37   38   37   38 ; Wght=  0.5000000000  0.5000000000
 cg2d: Sum(rhs),rhsMax =   1.27897692436818E-13  1.96331282602701E-03
 EXTERNAL_FIELDS_LOAD,       741 : iP,iLd,i0,i1=   37   38   37   38 ; Wght=  0.4500000000  0.5500000000
 cg2d: Sum(rhs),rhsMax =   2.25597318603832E-13  1.90249751148559E-03
 EXTERNAL_FIELDS_LOAD,       742 : iP,iLd,i0,i1=   37   38   37   38 ; Wght=  0.4000000000  0.6000000000
 cg2d: Sum(rhs),rhsMax =  -1.98951966012828E-13  1.88540070707954E-03
 EXTERNAL_FIELDS_LOAD,       743 : iP,iLd,i0,i1=   37   38   37   38 ; Wght=  0.3500000000  0.6500000000
 cg2d: Sum(rhs),rhsMax =   1.86517468137026E-13  1.86790819775226E-03
 EXTERNAL_FIELDS_LOAD,       744 : iP,iLd,i0,i1=   37   38   37   38 ; Wght=  0.3000000000  0.7000000000
 cg2d: Sum(rhs),rhsMax =   1.59872115546023E-14  1.84374736824220E-03
 EXTERNAL_FIELDS_LOAD,       745 : iP,iLd,i0,i1=   37   38   37   38 ; Wght=  0.2500000000  0.7500000000
 cg2d: Sum(rhs),rhsMax =   1.72306613421824E-13  1.81748312215564E-03
 EXTERNAL_FIELDS_LOAD,       746 : iP,iLd,i0,i1=   37   38   37   38 ; Wght=  0.2000000000  0.8000000000
 cg2d: Sum(rhs),rhsMax =   3.14415160573844E-13  1.79629058611703E-03
 EXTERNAL_FIELDS_LOAD,       747 : iP,iLd,i0,i1=   37   38   37   38 ; Wght=  0.1500000000  0.8500000000
 cg2d: Sum(rhs),rhsMax =   2.34479102800833E-13  1.76949713583477E-03
 EXTERNAL_FIELDS_LOAD,       748 : iP,iLd,i0,i1=   37   38   37   38 ; Wght=  0.1000000000  0.9000000000
 cg2d: Sum(rhs),rhsMax =   1.56319401867222E-13  1.73719187159227E-03
 EXTERNAL_FIELDS_LOAD,       749 : iP,iLd,i0,i1=   37   38   37   38 ; Wght=  0.0500000000  0.9500000000
 cg2d: Sum(rhs),rhsMax =   2.57571741713036E-13  1.69948997634136E-03
 EXTERNAL_FIELDS_LOAD,       750 : iP,iLd,i0,i1=   37   38   38   39 ; Wght=  1.0000000000  0.0000000000
 EXTERNAL_FIELDS_LOAD, it=       750 : Reading new data, i0,i1=   38   39 (prev=   37   38 )
(PID.TID 0000.0001)  MDS_READ_FIELD: opening global file: ../input/merid_halfgauss2p5hr_272x320.bin
(PID.TID 0000.0001)  MDS_READ_FIELD: opening global file: ../input/merid_halfgauss2p5hr_272x320.bin
 cg2d: Sum(rhs),rhsMax =   7.28306304154103E-14  1.65653238224928E-03
 EXTERNAL_FIELDS_LOAD,       751 : iP,iLd,i0,i1=   38   39   38   39 ; Wght=  0.9500000000  0.0500000000
 cg2d: Sum(rhs),rhsMax =   5.36459765498876E-13  1.60848528042661E-03
 EXTERNAL_FIELDS_LOAD,       752 : iP,iLd,i0,i1=   38   39   38   39 ; Wght=  0.9000000000  0.1000000000
 cg2d: Sum(rhs),rhsMax =   2.77111666946439E-13  1.55553948141073E-03
 EXTERNAL_FIELDS_LOAD,       753 : iP,iLd,i0,i1=   38   39   38   39 ; Wght=  0.8500000000  0.1500000000
 cg2d: Sum(rhs),rhsMax =   3.99680288865056E-13  1.49790963371010E-03
 EXTERNAL_FIELDS_LOAD,       754 : iP,iLd,i0,i1=   38   39   38   39 ; Wght=  0.8000000000  0.2000000000
 cg2d: Sum(rhs),rhsMax =   2.11386463888630E-13  1.43625738334118E-03
 EXTERNAL_FIELDS_LOAD,       755 : iP,iLd,i0,i1=   38   39   38   39 ; Wght=  0.7500000000  0.2500000000
 cg2d: Sum(rhs),rhsMax =   5.25801624462474E-13  1.37929526589327E-03
 EXTERNAL_FIELDS_LOAD,       756 : iP,iLd,i0,i1=   38   39   38   39 ; Wght=  0.7000000000  0.3000000000
 cg2d: Sum(rhs),rhsMax =   5.75539615965681E-13  1.31867829174724E-03
 EXTERNAL_FIELDS_LOAD,       757 : iP,iLd,i0,i1=   38   39   38   39 ; Wght=  0.6500000000  0.3500000000
 cg2d: Sum(rhs),rhsMax =   5.29354338141275E-13  1.25466519510708E-03
 EXTERNAL_FIELDS_LOAD,       758 : iP,iLd,i0,i1=   38   39   38   39 ; Wght=  0.6000000000  0.4000000000
 cg2d: Sum(rhs),rhsMax =   5.22248910783674E-13  1.21045986222306E-03
 EXTERNAL_FIELDS_LOAD,       759 : iP,iLd,i0,i1=   38   39   38   39 ; Wght=  0.5500000000  0.4500000000
 cg2d: Sum(rhs),rhsMax =   4.81392703477468E-13  1.18201986690980E-03
(PID.TID 0000.0001)      cg2d_init_res =   1.28895976400498E+00
(PID.TID 0000.0001)      cg2d_iters(min,last) =      -1      35
(PID.TID 0000.0001)      cg2d_last_res =   9.07824519056328E-08
(PID.TID 0000.0001) // =======================================================
(PID.TID 0000.0001) // Begin MONITOR dynamic field statistics
(PID.TID 0000.0001) // =======================================================
(PID.TID 0000.0001) %MON time_tsnumber                =                   760
(PID.TID 0000.0001) %MON time_secondsf                =   4.5600000000000E+04
(PID.TID 0000.0001) %MON dynstat_eta_max              =   1.6477889768482E-02
(PID.TID 0000.0001) %MON dynstat_eta_min              =  -1.0132086715165E-02
(PID.TID 0000.0001) %MON dynstat_eta_mean             =  -8.2127140996285E-20
(PID.TID 0000.0001) %MON dynstat_eta_sd               =   4.8167887631710E-04
(PID.TID 0000.0001) %MON dynstat_eta_del2             =   3.2231705908288E-07
(PID.TID 0000.0001) %MON dynstat_uvel_max             =   9.1640532876443E-02
(PID.TID 0000.0001) %MON dynstat_uvel_min             =  -3.2202241928447E-02
(PID.TID 0000.0001) %MON dynstat_uvel_mean            =  -5.2381362351164E-06
(PID.TID 0000.0001) %MON dynstat_uvel_sd              =   3.6272279971461E-03
(PID.TID 0000.0001) %MON dynstat_uvel_del2            =   3.1153336157240E-07
(PID.TID 0000.0001) %MON dynstat_vvel_max             =   3.7173082065415E-02
(PID.TID 0000.0001) %MON dynstat_vvel_min             =  -2.3807781144393E-02
(PID.TID 0000.0001) %MON dynstat_vvel_mean            =  -6.3453142433103E-05
(PID.TID 0000.0001) %MON dynstat_vvel_sd              =   6.1506355067512E-04
(PID.TID 0000.0001) %MON dynstat_vvel_del2            =   2.8712594903321E-07
(PID.TID 0000.0001) %MON dynstat_wvel_max             =   7.6913723550164E-05
(PID.TID 0000.0001) %MON dynstat_wvel_min             =  -8.1438004164217E-05
(PID.TID 0000.0001) %MON dynstat_wvel_mean            =  -6.6560303239196E-08
(PID.TID 0000.0001) %MON dynstat_wvel_sd              =   1.0967547309279E-06
(PID.TID 0000.0001) %MON dynstat_wvel_del2            =   2.2014502056220E-09
(PID.TID 0000.0001) %MON dynstat_theta_max            =   1.6580170727956E+01
(PID.TID 0000.0001) %MON dynstat_theta_min            =   4.2487822503034E+00
(PID.TID 0000.0001) %MON dynstat_theta_mean           =   7.6151906043411E+00
(PID.TID 0000.0001) %MON dynstat_theta_sd             =   3.6062020806477E+00
(PID.TID 0000.0001) %MON dynstat_theta_del2           =   1.8663875407508E-07
(PID.TID 0000.0001) %MON dynstat_salt_max             =   3.4471534193587E+01
(PID.TID 0000.0001) %MON dynstat_salt_min             =   3.3629974408794E+01
(PID.TID 0000.0001) %MON dynstat_salt_mean            =   3.4187264580779E+01
(PID.TID 0000.0001) %MON dynstat_salt_sd              =   2.7103717701219E-01
(PID.TID 0000.0001) %MON dynstat_salt_del2            =   7.8469871093954E-09
(PID.TID 0000.0001) %MON trAdv_CFL_u_max              =   2.7255778213722E-03
(PID.TID 0000.0001) %MON trAdv_CFL_v_max              =   1.1883097108932E-03
(PID.TID 0000.0001) %MON trAdv_CFL_w_max              =   1.4641449018857E-03
(PID.TID 0000.0001) %MON advcfl_uvel_max              =   2.7376494175043E-03
(PID.TID 0000.0001) %MON advcfl_vvel_max              =   1.1099755767517E-03
(PID.TID 0000.0001) %MON advcfl_wvel_max              =   1.3229163622266E-03
(PID.TID 0000.0001) %MON advcfl_W_hf_max              =   1.4379525676376E-03
(PID.TID 0000.0001) %MON pe_b_mean                    =   1.2162903842112E-09
(PID.TID 0000.0001) %MON ke_max                       =   5.9616424208577E-03
(PID.TID 0000.0001) %MON ke_mean                      =   6.7673465608957E-06
(PID.TID 0000.0001) %MON ke_vol                       =   8.2760855027014E+14
(PID.TID 0000.0001) %MON vort_r_min                   =  -3.9105134969757E-05
(PID.TID 0000.0001) %MON vort_r_max                   =   2.9951632896967E-05
(PID.TID 0000.0001) %MON vort_a_mean                  =   6.9582958995909E-04
(PID.TID 0000.0001) %MON vort_a_sd                    =   1.4296643297523E-06
(PID.TID 0000.0001) %MON vort_p_mean                  =   7.0012686801198E-04
(PID.TID 0000.0001) %MON vort_p_sd                    =   9.4512646507700E-05
(PID.TID 0000.0001) %MON surfExpan_theta_mean         =  -1.1088581350503E-12
(PID.TID 0000.0001) %MON surfExpan_salt_mean          =  -3.7016439751931E-21
(PID.TID 0000.0001) // =======================================================
(PID.TID 0000.0001) // End MONITOR dynamic field statistics
(PID.TID 0000.0001) // =======================================================
(PID.TID 0000.0001) // =======================================================
(PID.TID 0000.0001) // Begin OBCS MONITOR field statistics
(PID.TID 0000.0001) // =======================================================
(PID.TID 0000.0001) %MON obc_S_vVel_max               =   3.1129088971188E-02
(PID.TID 0000.0001) %MON obc_S_vVel_min               =  -1.8673123271895E-04
(PID.TID 0000.0001) %MON obc_S_vVel_mean              =   6.0258041195203E-21
(PID.TID 0000.0001) %MON obc_S_vVel_sd                =   1.3981799979370E-03
(PID.TID 0000.0001) %MON obc_S_vVel_Int               =   1.0231815394945E-11
(PID.TID 0000.0001) // =======================================================
(PID.TID 0000.0001) // End OBCS MONITOR field statistics
(PID.TID 0000.0001) // =======================================================
 EXTERNAL_FIELDS_LOAD,       760 : iP,iLd,i0,i1=   38   39   38   39 ; Wght=  0.5000000000  0.5000000000
 cg2d: Sum(rhs),rhsMax =   4.58300064565265E-13  1.19330939553445E-03
 EXTERNAL_FIELDS_LOAD,       761 : iP,iLd,i0,i1=   38   39   38   39 ; Wght=  0.4500000000  0.5500000000
 cg2d: Sum(rhs),rhsMax =   4.51194637207664E-13  1.21710511352030E-03
 EXTERNAL_FIELDS_LOAD,       762 : iP,iLd,i0,i1=   38   39   38   39 ; Wght=  0.4000000000  0.6000000000
 cg2d: Sum(rhs),rhsMax =   5.22248910783674E-13  1.23838310032910E-03
 EXTERNAL_FIELDS_LOAD,       763 : iP,iLd,i0,i1=   38   39   38   39 ; Wght=  0.3500000000  0.6500000000
 cg2d: Sum(rhs),rhsMax =   3.99680288865056E-13  1.25702459178896E-03
 EXTERNAL_FIELDS_LOAD,       764 : iP,iLd,i0,i1=   38   39   38   39 ; Wght=  0.3000000000  0.7000000000
 cg2d: Sum(rhs),rhsMax =   6.00408611717285E-13  1.27292049918758E-03
 EXTERNAL_FIELDS_LOAD,       765 : iP,iLd,i0,i1=   38   39   38   39 ; Wght=  0.2500000000  0.7500000000
 cg2d: Sum(rhs),rhsMax =   4.35207425653061E-14  1.29510446103525E-03
 EXTERNAL_FIELDS_LOAD,       766 : iP,iLd,i0,i1=   38   39   38   39 ; Wght=  0.2000000000  0.8000000000
 cg2d: Sum(rhs),rhsMax =   5.17808018685173E-13  1.31582553004326E-03
 EXTERNAL_FIELDS_LOAD,       767 : iP,iLd,i0,i1=   38   39   38   39 ; Wght=  0.1500000000  0.8500000000
 cg2d: Sum(rhs),rhsMax =   6.48370246381091E-13  1.33369282681622E-03
 EXTERNAL_FIELDS_LOAD,       768 : iP,iLd,i0,i1=   38   39   38   39 ; Wght=  0.1000000000  0.9000000000
 cg2d: Sum(rhs),rhsMax =   7.23865412055602E-13  1.34860521475741E-03
 EXTERNAL_FIELDS_LOAD,       769 : iP,iLd,i0,i1=   38   39   38   39 ; Wght=  0.0500000000  0.9500000000
 cg2d: Sum(rhs),rhsMax =  -3.22408766351145E-13  1.36047256103548E-03
 EXTERNAL_FIELDS_LOAD,       770 : iP,iLd,i0,i1=   38   39   39   40 ; Wght=  1.0000000000  0.0000000000
 EXTERNAL_FIELDS_LOAD, it=       770 : Reading new data, i0,i1=   39   40 (prev=   38   39 )
(PID.TID 0000.0001)  MDS_READ_FIELD: opening global file: ../input/merid_halfgauss2p5hr_272x320.bin
(PID.TID 0000.0001)  MDS_READ_FIELD: opening global file: ../input/merid_halfgauss2p5hr_272x320.bin
 cg2d: Sum(rhs),rhsMax =  -2.13162820728030E-14  1.36921613687014E-03
 EXTERNAL_FIELDS_LOAD,       771 : iP,iLd,i0,i1=   39   40   39   40 ; Wght=  0.9500000000  0.0500000000
 cg2d: Sum(rhs),rhsMax =   3.97903932025656E-13  1.37476896352407E-03
 EXTERNAL_FIELDS_LOAD,       772 : iP,iLd,i0,i1=   39   40   39   40 ; Wght=  0.9000000000  0.1000000000
 cg2d: Sum(rhs),rhsMax =   5.87085935421783E-13  1.37921237052443E-03
 EXTERNAL_FIELDS_LOAD,       773 : iP,iLd,i0,i1=   39   40   39   40 ; Wght=  0.8500000000  0.1500000000
 cg2d: Sum(rhs),rhsMax =   1.17772458452237E-12  1.40281744929698E-03
 EXTERNAL_FIELDS_LOAD,       774 : iP,iLd,i0,i1=   39   40   39   40 ; Wght=  0.8000000000  0.2000000000
 cg2d: Sum(rhs),rhsMax =   7.41184891239755E-13  1.42390177381246E-03
 EXTERNAL_FIELDS_LOAD,       775 : iP,iLd,i0,i1=   39   40   39   40 ; Wght=  0.7500000000  0.2500000000
 cg2d: Sum(rhs),rhsMax =   1.12998499446348E-12  1.44370468487657E-03
 EXTERNAL_FIELDS_LOAD,       776 : iP,iLd,i0,i1=   39   40   39   40 ; Wght=  0.7000000000  0.3000000000
 cg2d: Sum(rhs),rhsMax =  -1.57762691799235E-13  1.48820365028722E-03
 EXTERNAL_FIELDS_LOAD,       777 : iP,iLd,i0,i1=   39   40   39   40 ; Wght=  0.6500000000  0.3500000000
 cg2d: Sum(rhs),rhsMax =   2.58904009342587E-13  1.52570746517816E-03
 EXTERNAL_FIELDS_LOAD,       778 : iP,iLd,i0,i1=   39   40   39   40 ; Wght=  0.6000000000  0.4000000000
 cg2d: Sum(rhs),rhsMax =   1.95399252334028E-13  1.55612273643010E-03
 EXTERNAL_FIELDS_LOAD,       779 : iP,iLd,i0,i1=   39   40   39   40 ; Wght=  0.5500000000  0.4500000000
 cg2d: Sum(rhs),rhsMax =  -4.05009359383257E-13  1.57938619412774E-03
(PID.TID 0000.0001)      cg2d_init_res =   5.22073447126765E-01
(PID.TID 0000.0001)      cg2d_iters(min,last) =      -1      33
(PID.TID 0000.0001)      cg2d_last_res =   9.87075733514517E-08
(PID.TID 0000.0001) // =======================================================
(PID.TID 0000.0001) // Begin MONITOR dynamic field statistics
(PID.TID 0000.0001) // =======================================================
(PID.TID 0000.0001) %MON time_tsnumber                =                   780
(PID.TID 0000.0001) %MON time_secondsf                =   4.6800000000000E+04
(PID.TID 0000.0001) %MON dynstat_eta_max              =   1.4305260460468E-02
(PID.TID 0000.0001) %MON dynstat_eta_min              =  -9.3444004183259E-03
(PID.TID 0000.0001) %MON dynstat_eta_mean             =  -8.2423272514300E-20
(PID.TID 0000.0001) %MON dynstat_eta_sd               =   6.2987075308270E-04
(PID.TID 0000.0001) %MON dynstat_eta_del2             =   3.1799207660476E-07
(PID.TID 0000.0001) %MON dynstat_uvel_max             =   7.5392654297381E-02
(PID.TID 0000.0001) %MON dynstat_uvel_min             =  -3.4248483332611E-02
(PID.TID 0000.0001) %MON dynstat_uvel_mean            =  -4.4821158378775E-05
(PID.TID 0000.0001) %MON dynstat_uvel_sd              =   2.8426264212917E-03
(PID.TID 0000.0001) %MON dynstat_uvel_del2            =   3.0670455321695E-07
(PID.TID 0000.0001) %MON dynstat_vvel_max             =   2.9042608804022E-02
(PID.TID 0000.0001) %MON dynstat_vvel_min             =  -6.4674592811732E-02
(PID.TID 0000.0001) %MON dynstat_vvel_mean            =  -2.1752443798530E-05
(PID.TID 0000.0001) %MON dynstat_vvel_sd              =   2.3194301984203E-03
(PID.TID 0000.0001) %MON dynstat_vvel_del2            =   2.6914614486169E-07
(PID.TID 0000.0001) %MON dynstat_wvel_max             =   8.1390933763897E-05
(PID.TID 0000.0001) %MON dynstat_wvel_min             =  -6.9997080319428E-05
(PID.TID 0000.0001) %MON dynstat_wvel_mean            =   6.8872453043091E-08
(PID.TID 0000.0001) %MON dynstat_wvel_sd              =   1.2412174260100E-06
(PID.TID 0000.0001) %MON dynstat_wvel_del2            =   2.1415602036099E-09
(PID.TID 0000.0001) %MON dynstat_theta_max            =   1.6580141620372E+01
(PID.TID 0000.0001) %MON dynstat_theta_min            =   4.2487515509351E+00
(PID.TID 0000.0001) %MON dynstat_theta_mean           =   7.6151905055973E+00
(PID.TID 0000.0001) %MON dynstat_theta_sd             =   3.6062006460762E+00
(PID.TID 0000.0001) %MON dynstat_theta_del2           =   1.8520181462236E-07
(PID.TID 0000.0001) %MON dynstat_salt_max             =   3.4471537648312E+01
(PID.TID 0000.0001) %MON dynstat_salt_min             =   3.3629974918769E+01
(PID.TID 0000.0001) %MON dynstat_salt_mean            =   3.4187264584610E+01
(PID.TID 0000.0001) %MON dynstat_salt_sd              =   2.7103710771484E-01
(PID.TID 0000.0001) %MON dynstat_salt_del2            =   7.7250782641350E-09
(PID.TID 0000.0001) %MON trAdv_CFL_u_max              =   2.3537453602010E-03
(PID.TID 0000.0001) %MON trAdv_CFL_v_max              =   1.8603673255154E-03
(PID.TID 0000.0001) %MON trAdv_CFL_w_max              =   1.2988656954393E-03
(PID.TID 0000.0001) %MON advcfl_uvel_max              =   2.3060742690722E-03
(PID.TID 0000.0001) %MON advcfl_vvel_max              =   1.9311613261192E-03
(PID.TID 0000.0001) %MON advcfl_wvel_max              =   1.4094704625179E-03
(PID.TID 0000.0001) %MON advcfl_W_hf_max              =   1.5320331114325E-03
(PID.TID 0000.0001) %MON pe_b_mean                    =   2.0798162037329E-09
(PID.TID 0000.0001) %MON ke_max                       =   5.1722276393756E-03
(PID.TID 0000.0001) %MON ke_mean                      =   6.7283172880030E-06
(PID.TID 0000.0001) %MON ke_vol                       =   8.2760855027014E+14
(PID.TID 0000.0001) %MON vort_r_min                   =  -3.8349638606003E-05
(PID.TID 0000.0001) %MON vort_r_max                   =   2.7632779950019E-05
(PID.TID 0000.0001) %MON vort_a_mean                  =   6.9582958995909E-04
(PID.TID 0000.0001) %MON vort_a_sd                    =   1.4290714763268E-06
(PID.TID 0000.0001) %MON vort_p_mean                  =   7.0012686801198E-04
(PID.TID 0000.0001) %MON vort_p_sd                    =   9.4511217802315E-05
(PID.TID 0000.0001) %MON surfExpan_theta_mean         =  -1.2462660354675E-12
(PID.TID 0000.0001) %MON surfExpan_salt_mean          =  -4.4255210192309E-21
(PID.TID 0000.0001) // =======================================================
(PID.TID 0000.0001) // End MONITOR dynamic field statistics
(PID.TID 0000.0001) // =======================================================
(PID.TID 0000.0001) // =======================================================
(PID.TID 0000.0001) // Begin OBCS MONITOR field statistics
(PID.TID 0000.0001) // =======================================================
(PID.TID 0000.0001) %MON obc_S_vVel_max               =   1.7923405780668E-04
(PID.TID 0000.0001) %MON obc_S_vVel_min               =  -3.7585866745205E-02
(PID.TID 0000.0001) %MON obc_S_vVel_mean              =  -6.0258041195203E-20
(PID.TID 0000.0001) %MON obc_S_vVel_sd                =   1.6879004703605E-03
(PID.TID 0000.0001) %MON obc_S_vVel_Int               =  -1.0231815394945E-10
(PID.TID 0000.0001) // =======================================================
(PID.TID 0000.0001) // End OBCS MONITOR field statistics
(PID.TID 0000.0001) // =======================================================
 EXTERNAL_FIELDS_LOAD,       780 : iP,iLd,i0,i1=   39   40   39   40 ; Wght=  0.5000000000  0.5000000000
 cg2d: Sum(rhs),rhsMax =   5.52891066263328E-13  1.59546430540172E-03
 EXTERNAL_FIELDS_LOAD,       781 : iP,iLd,i0,i1=   39   40   39   40 ; Wght=  0.4500000000  0.5500000000
 cg2d: Sum(rhs),rhsMax =   1.67865721323324E-13  1.60435277650286E-03
 EXTERNAL_FIELDS_LOAD,       782 : iP,iLd,i0,i1=   39   40   39   40 ; Wght=  0.4000000000  0.6000000000
 cg2d: Sum(rhs),rhsMax =   7.78932474077010E-13  1.60607595115186E-03
 EXTERNAL_FIELDS_LOAD,       783 : iP,iLd,i0,i1=   39   40   39   40 ; Wght=  0.3500000000  0.6500000000
 cg2d: Sum(rhs),rhsMax =  -2.04281036531029E-14  1.60068611428976E-03
 EXTERNAL_FIELDS_LOAD,       784 : iP,iLd,i0,i1=   39   40   39   40 ; Wght=  0.3000000000  0.7000000000
 cg2d: Sum(rhs),rhsMax =   5.86197757002083E-14  1.58826270873487E-03
 EXTERNAL_FIELDS_LOAD,       785 : iP,iLd,i0,i1=   39   40   39   40 ; Wght=  0.2500000000  0.7500000000
 cg2d: Sum(rhs),rhsMax =   3.26849658449646E-13  1.56891147221421E-03
 EXTERNAL_FIELDS_LOAD,       786 : iP,iLd,i0,i1=   39   40   39   40 ; Wght=  0.2000000000  0.8000000000
 cg2d: Sum(rhs),rhsMax =   3.22408766351145E-13  1.54291033455668E-03
 EXTERNAL_FIELDS_LOAD,       787 : iP,iLd,i0,i1=   39   40   39   40 ; Wght=  0.1500000000  0.8500000000
 cg2d: Sum(rhs),rhsMax =   6.88338275267597E-13  1.54531030693626E-03
 EXTERNAL_FIELDS_LOAD,       788 : iP,iLd,i0,i1=   39   40   39   40 ; Wght=  0.1000000000  0.9000000000
 cg2d: Sum(rhs),rhsMax =  -1.06581410364015E-13  1.55288986247386E-03
 EXTERNAL_FIELDS_LOAD,       789 : iP,iLd,i0,i1=   39   40   39   40 ; Wght=  0.0500000000  0.9500000000
 cg2d: Sum(rhs),rhsMax =  -1.79412040779425E-13  1.55319605223998E-03
 EXTERNAL_FIELDS_LOAD,       790 : iP,iLd,i0,i1=   39   40   40   41 ; Wght=  1.0000000000  0.0000000000
 EXTERNAL_FIELDS_LOAD, it=       790 : Reading new data, i0,i1=   40   41 (prev=   39   40 )
(PID.TID 0000.0001)  MDS_READ_FIELD: opening global file: ../input/merid_halfgauss2p5hr_272x320.bin
(PID.TID 0000.0001)  MDS_READ_FIELD: opening global file: ../input/merid_halfgauss2p5hr_272x320.bin
 cg2d: Sum(rhs),rhsMax =   2.27373675443232E-13  1.54624481110690E-03
 EXTERNAL_FIELDS_LOAD,       791 : iP,iLd,i0,i1=   40   41   40   41 ; Wght=  0.9500000000  0.0500000000
 cg2d: Sum(rhs),rhsMax =   6.83897383169096E-14  1.53208417798019E-03
 EXTERNAL_FIELDS_LOAD,       792 : iP,iLd,i0,i1=   40   41   40   41 ; Wght=  0.9000000000  0.1000000000
 cg2d: Sum(rhs),rhsMax =   7.46958050967805E-13  1.51079392072255E-03
 EXTERNAL_FIELDS_LOAD,       793 : iP,iLd,i0,i1=   40   41   40   41 ; Wght=  0.8500000000  0.1500000000
 cg2d: Sum(rhs),rhsMax =   5.15143483426073E-13  1.48248498961712E-03
 EXTERNAL_FIELDS_LOAD,       794 : iP,iLd,i0,i1=   40   41   40   41 ; Wght=  0.8000000000  0.2000000000
 cg2d: Sum(rhs),rhsMax =   1.40509825996560E-12  1.44729880118955E-03
 EXTERNAL_FIELDS_LOAD,       795 : iP,iLd,i0,i1=   40   41   40   41 ; Wght=  0.7500000000  0.2500000000
 cg2d: Sum(rhs),rhsMax =   4.08562073062058E-13  1.40540635425054E-03
 EXTERNAL_FIELDS_LOAD,       796 : iP,iLd,i0,i1=   40   41   40   41 ; Wght=  0.7000000000  0.3000000000
 cg2d: Sum(rhs),rhsMax =   4.05009359383257E-13  1.36932084733793E-03
 EXTERNAL_FIELDS_LOAD,       797 : iP,iLd,i0,i1=   40   41   40   41 ; Wght=  0.6500000000  0.3500000000
 cg2d: Sum(rhs),rhsMax =   1.24344978758018E-13  1.33966090396399E-03
 EXTERNAL_FIELDS_LOAD,       798 : iP,iLd,i0,i1=   40   41   40   41 ; Wght=  0.6000000000  0.4000000000
 cg2d: Sum(rhs),rhsMax =   3.39284156325448E-13  1.30791112478535E-03
 EXTERNAL_FIELDS_LOAD,       799 : iP,iLd,i0,i1=   40   41   40   41 ; Wght=  0.5500000000  0.4500000000
 cg2d: Sum(rhs),rhsMax =   8.43769498715119E-13  1.27421650122778E-03
(PID.TID 0000.0001)      cg2d_init_res =   9.32913559023012E-01
(PID.TID 0000.0001)      cg2d_iters(min,last) =      -1      35
(PID.TID 0000.0001)      cg2d_last_res =   6.42359387466313E-08
(PID.TID 0000.0001) // =======================================================
(PID.TID 0000.0001) // Begin MONITOR dynamic field statistics
(PID.TID 0000.0001) // =======================================================
(PID.TID 0000.0001) %MON time_tsnumber                =                   800
(PID.TID 0000.0001) %MON time_secondsf                =   4.8000000000000E+04
(PID.TID 0000.0001) %MON dynstat_eta_max              =   1.1574942863656E-02
(PID.TID 0000.0001) %MON dynstat_eta_min              =  -1.0114362748327E-02
(PID.TID 0000.0001) %MON dynstat_eta_mean             =  -1.7662599874521E-19
(PID.TID 0000.0001) %MON dynstat_eta_sd               =   5.4872037171743E-04
(PID.TID 0000.0001) %MON dynstat_eta_del2             =   3.0082347187701E-07
(PID.TID 0000.0001) %MON dynstat_uvel_max             =   5.1890936628475E-02
(PID.TID 0000.0001) %MON dynstat_uvel_min             =  -2.8578694266965E-02
(PID.TID 0000.0001) %MON dynstat_uvel_mean            =  -3.5370940066988E-05
(PID.TID 0000.0001) %MON dynstat_uvel_sd              =   3.3020579525753E-04
(PID.TID 0000.0001) %MON dynstat_uvel_del2            =   2.7911405586301E-07
(PID.TID 0000.0001) %MON dynstat_vvel_max             =   2.3926767748595E-02
(PID.TID 0000.0001) %MON dynstat_vvel_min             =  -9.0459250814771E-02
(PID.TID 0000.0001) %MON dynstat_vvel_mean            =   4.1479397314457E-05
(PID.TID 0000.0001) %MON dynstat_vvel_sd              =   3.6463981917898E-03
(PID.TID 0000.0001) %MON dynstat_vvel_del2            =   2.6744913088271E-07
(PID.TID 0000.0001) %MON dynstat_wvel_max             =   8.3944825585789E-05
(PID.TID 0000.0001) %MON dynstat_wvel_min             =  -5.8672568062511E-05
(PID.TID 0000.0001) %MON dynstat_wvel_mean            =   1.5927743836423E-07
(PID.TID 0000.0001) %MON dynstat_wvel_sd              =   1.5321655160276E-06
(PID.TID 0000.0001) %MON dynstat_wvel_del2            =   2.1153081276750E-09
(PID.TID 0000.0001) %MON dynstat_theta_max            =   1.6580114275099E+01
(PID.TID 0000.0001) %MON dynstat_theta_min            =   4.2487157862708E+00
(PID.TID 0000.0001) %MON dynstat_theta_mean           =   7.6151879533124E+00
(PID.TID 0000.0001) %MON dynstat_theta_sd             =   3.6061965772973E+00
(PID.TID 0000.0001) %MON dynstat_theta_del2           =   1.8326740164442E-07
(PID.TID 0000.0001) %MON dynstat_salt_max             =   3.4471541672124E+01
(PID.TID 0000.0001) %MON dynstat_salt_min             =   3.3629974174533E+01
(PID.TID 0000.0001) %MON dynstat_salt_mean            =   3.4187264737999E+01
(PID.TID 0000.0001) %MON dynstat_salt_sd              =   2.7103691894249E-01
(PID.TID 0000.0001) %MON dynstat_salt_del2            =   7.5730771510217E-09
(PID.TID 0000.0001) %MON trAdv_CFL_u_max              =   1.5582684625763E-03
(PID.TID 0000.0001) %MON trAdv_CFL_v_max              =   2.6911066110531E-03
(PID.TID 0000.0001) %MON trAdv_CFL_w_max              =   1.4299963238270E-03
(PID.TID 0000.0001) %MON advcfl_uvel_max              =   1.5501785942934E-03
(PID.TID 0000.0001) %MON advcfl_vvel_max              =   2.7010824369893E-03
(PID.TID 0000.0001) %MON advcfl_wvel_max              =   1.5436098442587E-03
(PID.TID 0000.0001) %MON advcfl_W_hf_max              =   1.6778367872377E-03
(PID.TID 0000.0001) %MON pe_b_mean                    =   1.5784260481143E-09
(PID.TID 0000.0001) %MON ke_max                       =   4.0494434597087E-03
(PID.TID 0000.0001) %MON ke_mean                      =   6.6903017794228E-06
(PID.TID 0000.0001) %MON ke_vol                       =   8.2760855027014E+14
(PID.TID 0000.0001) %MON vort_r_min                   =  -1.9969425151225E-05
(PID.TID 0000.0001) %MON vort_r_max                   =   2.5824095067421E-05
(PID.TID 0000.0001) %MON vort_a_mean                  =   6.9582958995909E-04
(PID.TID 0000.0001) %MON vort_a_sd                    =   1.4247580799562E-06
(PID.TID 0000.0001) %MON vort_p_mean                  =   7.0012686801198E-04
(PID.TID 0000.0001) %MON vort_p_sd                    =   9.4513288388430E-05
(PID.TID 0000.0001) %MON surfExpan_theta_mean         =  -5.0996197107968E-13
(PID.TID 0000.0001) %MON surfExpan_salt_mean          =  -5.4167390170326E-21
(PID.TID 0000.0001) // =======================================================
(PID.TID 0000.0001) // End MONITOR dynamic field statistics
(PID.TID 0000.0001) // =======================================================
(PID.TID 0000.0001) // =======================================================
(PID.TID 0000.0001) // Begin OBCS MONITOR field statistics
(PID.TID 0000.0001) // =======================================================
(PID.TID 0000.0001) %MON obc_S_vVel_max               =   4.1214462591325E-04
(PID.TID 0000.0001) %MON obc_S_vVel_min               =  -8.1479083082161E-02
(PID.TID 0000.0001) %MON obc_S_vVel_mean              =  -1.2734532705920E-19
(PID.TID 0000.0001) %MON obc_S_vVel_sd                =   3.6604887583412E-03
(PID.TID 0000.0001) %MON obc_S_vVel_Int               =  -2.1623236534651E-10
(PID.TID 0000.0001) // =======================================================
(PID.TID 0000.0001) // End OBCS MONITOR field statistics
(PID.TID 0000.0001) // =======================================================
 EXTERNAL_FIELDS_LOAD,       800 : iP,iLd,i0,i1=   40   41   40   41 ; Wght=  0.5000000000  0.5000000000
 cg2d: Sum(rhs),rhsMax =   4.61852778244065E-13  1.23872573461549E-03
 EXTERNAL_FIELDS_LOAD,       801 : iP,iLd,i0,i1=   40   41   40   41 ; Wght=  0.4500000000  0.5500000000
 cg2d: Sum(rhs),rhsMax =   4.76063632959267E-13  1.20159059202548E-03
 EXTERNAL_FIELDS_LOAD,       802 : iP,iLd,i0,i1=   40   41   40   41 ; Wght=  0.4000000000  0.6000000000
 cg2d: Sum(rhs),rhsMax =   1.26298971281358E-12  1.16296526247140E-03
 EXTERNAL_FIELDS_LOAD,       803 : iP,iLd,i0,i1=   40   41   40   41 ; Wght=  0.3500000000  0.6500000000
 cg2d: Sum(rhs),rhsMax =  -3.85469434149854E-13  1.12300571519634E-03
 EXTERNAL_FIELDS_LOAD,       804 : iP,iLd,i0,i1=   40   41   40   41 ; Wght=  0.3000000000  0.7000000000
 cg2d: Sum(rhs),rhsMax =   8.57980353430321E-13  1.08366518393366E-03
 EXTERNAL_FIELDS_LOAD,       805 : iP,iLd,i0,i1=   40   41   40   41 ; Wght=  0.2500000000  0.7500000000
 cg2d: Sum(rhs),rhsMax =   5.93303184359684E-13  1.04313037967660E-03
 EXTERNAL_FIELDS_LOAD,       806 : iP,iLd,i0,i1=   40   41   40   41 ; Wght=  0.2000000000  0.8000000000
 cg2d: Sum(rhs),rhsMax =   5.75539615965681E-13  1.00125901344674E-03
 EXTERNAL_FIELDS_LOAD,       807 : iP,iLd,i0,i1=   40   41   40   41 ; Wght=  0.1500000000  0.8500000000
 cg2d: Sum(rhs),rhsMax =   4.29878355134861E-13  9.96922293330776E-04
 EXTERNAL_FIELDS_LOAD,       808 : iP,iLd,i0,i1=   40   41   40   41 ; Wght=  0.1000000000  0.9000000000
 cg2d: Sum(rhs),rhsMax =   8.29558643999917E-13  1.02333155143374E-03
 EXTERNAL_FIELDS_LOAD,       809 : iP,iLd,i0,i1=   40   41   40   41 ; Wght=  0.0500000000  0.9500000000
 cg2d: Sum(rhs),rhsMax =   5.80868686483882E-13  1.07674347570205E-03
 EXTERNAL_FIELDS_LOAD,       810 : iP,iLd,i0,i1=   40   41   41   42 ; Wght=  1.0000000000  0.0000000000
 EXTERNAL_FIELDS_LOAD, it=       810 : Reading new data, i0,i1=   41   42 (prev=   40   41 )
(PID.TID 0000.0001)  MDS_READ_FIELD: opening global file: ../input/merid_halfgauss2p5hr_272x320.bin
(PID.TID 0000.0001)  MDS_READ_FIELD: opening global file: ../input/merid_halfgauss2p5hr_272x320.bin
 cg2d: Sum(rhs),rhsMax =   6.05737682235485E-13  1.12818960716622E-03
 EXTERNAL_FIELDS_LOAD,       811 : iP,iLd,i0,i1=   41   42   41   42 ; Wght=  0.9500000000  0.0500000000
 cg2d: Sum(rhs),rhsMax =   6.76791955811495E-13  1.17747665923368E-03
 EXTERNAL_FIELDS_LOAD,       812 : iP,iLd,i0,i1=   41   42   41   42 ; Wght=  0.9000000000  0.1000000000
 cg2d: Sum(rhs),rhsMax =   6.60804744256893E-13  1.22635096467797E-03
 EXTERNAL_FIELDS_LOAD,       813 : iP,iLd,i0,i1=   41   42   41   42 ; Wght=  0.8500000000  0.1500000000
 cg2d: Sum(rhs),rhsMax =   6.83897383169096E-13  1.27721185049893E-03
 EXTERNAL_FIELDS_LOAD,       814 : iP,iLd,i0,i1=   41   42   41   42 ; Wght=  0.8000000000  0.2000000000
 cg2d: Sum(rhs),rhsMax =   6.53699316899292E-13  1.32512678726096E-03
 EXTERNAL_FIELDS_LOAD,       815 : iP,iLd,i0,i1=   41   42   41   42 ; Wght=  0.7500000000  0.2500000000
 cg2d: Sum(rhs),rhsMax =   8.22453216642316E-13  1.36992385525997E-03
 EXTERNAL_FIELDS_LOAD,       816 : iP,iLd,i0,i1=   41   42   41   42 ; Wght=  0.7000000000  0.3000000000
 cg2d: Sum(rhs),rhsMax =   5.70210545447480E-13  1.41144395463921E-03
 EXTERNAL_FIELDS_LOAD,       817 : iP,iLd,i0,i1=   41   42   41   42 ; Wght=  0.6500000000  0.3500000000
 cg2d: Sum(rhs),rhsMax =   6.69686528453894E-13  1.44954151968729E-03
 EXTERNAL_FIELDS_LOAD,       818 : iP,iLd,i0,i1=   41   42   41   42 ; Wght=  0.6000000000  0.4000000000
 cg2d: Sum(rhs),rhsMax =   8.08242361927114E-13  1.48408516579628E-03
 EXTERNAL_FIELDS_LOAD,       819 : iP,iLd,i0,i1=   41   42   41   42 ; Wght=  0.5500000000  0.4500000000
 cg2d: Sum(rhs),rhsMax =   9.07718344933528E-13  1.51495826263665E-03
(PID.TID 0000.0001)      cg2d_init_res =   9.49491719720987E-01
(PID.TID 0000.0001)      cg2d_iters(min,last) =      -1      35
(PID.TID 0000.0001)      cg2d_last_res =   6.37686776810918E-08
(PID.TID 0000.0001) // =======================================================
(PID.TID 0000.0001) // Begin MONITOR dynamic field statistics
(PID.TID 0000.0001) // =======================================================
(PID.TID 0000.0001) %MON time_tsnumber                =                   820
(PID.TID 0000.0001) %MON time_secondsf                =   4.9200000000000E+04
(PID.TID 0000.0001) %MON dynstat_eta_max              =   1.1997208998940E-02
(PID.TID 0000.0001) %MON dynstat_eta_min              =  -1.2453672344225E-02
(PID.TID 0000.0001) %MON dynstat_eta_mean             =  -1.4424895277553E-19
(PID.TID 0000.0001) %MON dynstat_eta_sd               =   4.7330037492027E-04
(PID.TID 0000.0001) %MON dynstat_eta_del2             =   2.7552838147136E-07
(PID.TID 0000.0001) %MON dynstat_uvel_max             =   4.5999485961927E-02
(PID.TID 0000.0001) %MON dynstat_uvel_min             =  -7.0841701863044E-02
(PID.TID 0000.0001) %MON dynstat_uvel_mean            =   1.0531954223873E-05
(PID.TID 0000.0001) %MON dynstat_uvel_sd              =   2.5756336754793E-03
(PID.TID 0000.0001) %MON dynstat_uvel_del2            =   2.5716224630587E-07
(PID.TID 0000.0001) %MON dynstat_vvel_max             =   2.1037690652195E-02
(PID.TID 0000.0001) %MON dynstat_vvel_min             =  -7.2036580825634E-02
(PID.TID 0000.0001) %MON dynstat_vvel_mean            =   5.6537804762310E-05
(PID.TID 0000.0001) %MON dynstat_vvel_sd              =   2.5864198550227E-03
(PID.TID 0000.0001) %MON dynstat_vvel_del2            =   2.6248061512044E-07
(PID.TID 0000.0001) %MON dynstat_wvel_max             =   8.3115538694375E-05
(PID.TID 0000.0001) %MON dynstat_wvel_min             =  -5.3903128950420E-05
(PID.TID 0000.0001) %MON dynstat_wvel_mean            =   1.4506715875830E-07
(PID.TID 0000.0001) %MON dynstat_wvel_sd              =   1.3029431861186E-06
(PID.TID 0000.0001) %MON dynstat_wvel_del2            =   2.0684090959099E-09
(PID.TID 0000.0001) %MON dynstat_theta_max            =   1.6580091176180E+01
(PID.TID 0000.0001) %MON dynstat_theta_min            =   4.2486787528537E+00
(PID.TID 0000.0001) %MON dynstat_theta_mean           =   7.6151846185606E+00
(PID.TID 0000.0001) %MON dynstat_theta_sd             =   3.6061917149402E+00
(PID.TID 0000.0001) %MON dynstat_theta_del2           =   1.8306520931110E-07
(PID.TID 0000.0001) %MON dynstat_salt_max             =   3.4471545839503E+01
(PID.TID 0000.0001) %MON dynstat_salt_min             =   3.3629972803577E+01
(PID.TID 0000.0001) %MON dynstat_salt_mean            =   3.4187264940459E+01
(PID.TID 0000.0001) %MON dynstat_salt_sd              =   2.7103669370756E-01
(PID.TID 0000.0001) %MON dynstat_salt_del2            =   7.5094895648110E-09
(PID.TID 0000.0001) %MON trAdv_CFL_u_max              =   2.0497315443503E-03
(PID.TID 0000.0001) %MON trAdv_CFL_v_max              =   2.2045436991801E-03
(PID.TID 0000.0001) %MON trAdv_CFL_w_max              =   1.1937301525416E-03
(PID.TID 0000.0001) %MON advcfl_uvel_max              =   2.1163096476301E-03
(PID.TID 0000.0001) %MON advcfl_vvel_max              =   2.1509877821927E-03
(PID.TID 0000.0001) %MON advcfl_wvel_max              =   1.2639459963004E-03
(PID.TID 0000.0001) %MON advcfl_W_hf_max              =   1.3738543438048E-03
(PID.TID 0000.0001) %MON pe_b_mean                    =   1.1743451761104E-09
(PID.TID 0000.0001) %MON ke_max                       =   5.0797182436451E-03
(PID.TID 0000.0001) %MON ke_mean                      =   6.6524758265928E-06
(PID.TID 0000.0001) %MON ke_vol                       =   8.2760855027014E+14
(PID.TID 0000.0001) %MON vort_r_min                   =  -2.1203126710785E-05
(PID.TID 0000.0001) %MON vort_r_max                   =   2.2892149876544E-05
(PID.TID 0000.0001) %MON vort_a_mean                  =   6.9582958995909E-04
(PID.TID 0000.0001) %MON vort_a_sd                    =   1.4261197209575E-06
(PID.TID 0000.0001) %MON vort_p_mean                  =   7.0012686801198E-04
(PID.TID 0000.0001) %MON vort_p_sd                    =   9.4517600155502E-05
(PID.TID 0000.0001) %MON surfExpan_theta_mean         =  -3.5971464503849E-13
(PID.TID 0000.0001) %MON surfExpan_salt_mean          =  -1.8055796723442E-21
(PID.TID 0000.0001) // =======================================================
(PID.TID 0000.0001) // End MONITOR dynamic field statistics
(PID.TID 0000.0001) // =======================================================
(PID.TID 0000.0001) // =======================================================
(PID.TID 0000.0001) // Begin OBCS MONITOR field statistics
(PID.TID 0000.0001) // =======================================================
(PID.TID 0000.0001) %MON obc_S_vVel_max               =   3.8893525829618E-04
(PID.TID 0000.0001) %MON obc_S_vVel_min               =  -7.2036580825634E-02
(PID.TID 0000.0001) %MON obc_S_vVel_mean              =  -4.7436469096446E-20
(PID.TID 0000.0001) %MON obc_S_vVel_sd                =   3.2372232124844E-03
(PID.TID 0000.0001) %MON obc_S_vVel_Int               =  -8.0547124525765E-11
(PID.TID 0000.0001) // =======================================================
(PID.TID 0000.0001) // End OBCS MONITOR field statistics
(PID.TID 0000.0001) // =======================================================
 EXTERNAL_FIELDS_LOAD,       820 : iP,iLd,i0,i1=   41   42   41   42 ; Wght=  0.5000000000  0.5000000000
 cg2d: Sum(rhs),rhsMax =   7.03437308402499E-13  1.54205942755435E-03
 EXTERNAL_FIELDS_LOAD,       821 : iP,iLd,i0,i1=   41   42   41   42 ; Wght=  0.4500000000  0.5500000000
 cg2d: Sum(rhs),rhsMax =   6.48370246381091E-13  1.56530293362774E-03
 EXTERNAL_FIELDS_LOAD,       822 : iP,iLd,i0,i1=   41   42   41   42 ; Wght=  0.4000000000  0.6000000000
 cg2d: Sum(rhs),rhsMax =   3.42836870004248E-13  1.58461902849697E-03
 EXTERNAL_FIELDS_LOAD,       823 : iP,iLd,i0,i1=   41   42   41   42 ; Wght=  0.3500000000  0.6500000000
 cg2d: Sum(rhs),rhsMax =   3.28626015289046E-13  1.61462565227882E-03
 EXTERNAL_FIELDS_LOAD,       824 : iP,iLd,i0,i1=   41   42   41   42 ; Wght=  0.3000000000  0.7000000000
 cg2d: Sum(rhs),rhsMax =   9.69890834312537E-13  1.66377378510084E-03
 EXTERNAL_FIELDS_LOAD,       825 : iP,iLd,i0,i1=   41   42   41   42 ; Wght=  0.2500000000  0.7500000000
 cg2d: Sum(rhs),rhsMax =   5.95079541199084E-13  1.72155294579653E-03
 EXTERNAL_FIELDS_LOAD,       826 : iP,iLd,i0,i1=   41   42   41   42 ; Wght=  0.2000000000  0.8000000000
 cg2d: Sum(rhs),rhsMax =   4.36983782492462E-13  1.77451043607396E-03
 EXTERNAL_FIELDS_LOAD,       827 : iP,iLd,i0,i1=   41   42   41   42 ; Wght=  0.1500000000  0.8500000000
 cg2d: Sum(rhs),rhsMax =   1.11644027356306E-12  1.82253703056633E-03
 EXTERNAL_FIELDS_LOAD,       828 : iP,iLd,i0,i1=   41   42   41   42 ; Wght=  0.1000000000  0.9000000000
 cg2d: Sum(rhs),rhsMax =   4.76063632959267E-13  1.86554210449312E-03
 EXTERNAL_FIELDS_LOAD,       829 : iP,iLd,i0,i1=   41   42   41   42 ; Wght=  0.0500000000  0.9500000000
 cg2d: Sum(rhs),rhsMax =   9.68558566682987E-13  1.90345346892104E-03
 EXTERNAL_FIELDS_LOAD,       830 : iP,iLd,i0,i1=   41   42   42   43 ; Wght=  1.0000000000  0.0000000000
 EXTERNAL_FIELDS_LOAD, it=       830 : Reading new data, i0,i1=   42   43 (prev=   41   42 )
(PID.TID 0000.0001)  MDS_READ_FIELD: opening global file: ../input/merid_halfgauss2p5hr_272x320.bin
(PID.TID 0000.0001)  MDS_READ_FIELD: opening global file: ../input/merid_halfgauss2p5hr_272x320.bin
 cg2d: Sum(rhs),rhsMax =   5.44453371276177E-13  1.93621711952372E-03
 EXTERNAL_FIELDS_LOAD,       831 : iP,iLd,i0,i1=   42   43   42   43 ; Wght=  0.9500000000  0.0500000000
 cg2d: Sum(rhs),rhsMax =   6.72351063712995E-13  1.96379690138227E-03
 EXTERNAL_FIELDS_LOAD,       832 : iP,iLd,i0,i1=   42   43   42   43 ; Wght=  0.9000000000  0.1000000000
 cg2d: Sum(rhs),rhsMax =   8.33555446888568E-13  1.98617409766930E-03
 EXTERNAL_FIELDS_LOAD,       833 : iP,iLd,i0,i1=   42   43   42   43 ; Wght=  0.8500000000  0.1500000000
 cg2d: Sum(rhs),rhsMax =   3.77475828372553E-13  2.00334694783714E-03
 EXTERNAL_FIELDS_LOAD,       834 : iP,iLd,i0,i1=   42   43   42   43 ; Wght=  0.8000000000  0.2000000000
 cg2d: Sum(rhs),rhsMax =   6.23945339839338E-13  2.01533010272343E-03
 EXTERNAL_FIELDS_LOAD,       835 : iP,iLd,i0,i1=   42   43   42   43 ; Wght=  0.7500000000  0.2500000000
 cg2d: Sum(rhs),rhsMax =   2.05169214950729E-13  2.02215402443846E-03
 EXTERNAL_FIELDS_LOAD,       836 : iP,iLd,i0,i1=   42   43   42   43 ; Wght=  0.7000000000  0.3000000000
 cg2d: Sum(rhs),rhsMax =   1.03872466183930E-12  2.02386433937791E-03
 EXTERNAL_FIELDS_LOAD,       837 : iP,iLd,i0,i1=   42   43   42   43 ; Wght=  0.6500000000  0.3500000000
 cg2d: Sum(rhs),rhsMax =   7.22644166728514E-13  2.04180272754779E-03
 EXTERNAL_FIELDS_LOAD,       838 : iP,iLd,i0,i1=   42   43   42   43 ; Wght=  0.6000000000  0.4000000000
 cg2d: Sum(rhs),rhsMax =   8.52706794063351E-13  2.06739835356978E-03
 EXTERNAL_FIELDS_LOAD,       839 : iP,iLd,i0,i1=   42   43   42   43 ; Wght=  0.5500000000  0.4500000000
 cg2d: Sum(rhs),rhsMax =   5.08593167580784E-13  2.08800824509225E-03
(PID.TID 0000.0001)      cg2d_init_res =   2.86952546129011E-01
(PID.TID 0000.0001)      cg2d_iters(min,last) =      -1      32
(PID.TID 0000.0001)      cg2d_last_res =   9.63248062296281E-08
(PID.TID 0000.0001) // =======================================================
(PID.TID 0000.0001) // Begin MONITOR dynamic field statistics
(PID.TID 0000.0001) // =======================================================
(PID.TID 0000.0001) %MON time_tsnumber                =                   840
(PID.TID 0000.0001) %MON time_secondsf                =   5.0400000000000E+04
(PID.TID 0000.0001) %MON dynstat_eta_max              =   1.2495664856869E-02
(PID.TID 0000.0001) %MON dynstat_eta_min              =  -1.0772651181730E-02
(PID.TID 0000.0001) %MON dynstat_eta_mean             =  -2.8153058900219E-19
(PID.TID 0000.0001) %MON dynstat_eta_sd               =   6.0138126649128E-04
(PID.TID 0000.0001) %MON dynstat_eta_del2             =   2.5558195829448E-07
(PID.TID 0000.0001) %MON dynstat_uvel_max             =   4.7399811151367E-02
(PID.TID 0000.0001) %MON dynstat_uvel_min             =  -9.1752119210299E-02
(PID.TID 0000.0001) %MON dynstat_uvel_mean            =   4.1408841196344E-05
(PID.TID 0000.0001) %MON dynstat_uvel_sd              =   3.6224843815084E-03
(PID.TID 0000.0001) %MON dynstat_uvel_del2            =   2.5868764350312E-07
(PID.TID 0000.0001) %MON dynstat_vvel_max             =   1.9677814513093E-02
(PID.TID 0000.0001) %MON dynstat_vvel_min             =  -2.7048461021703E-02
(PID.TID 0000.0001) %MON dynstat_vvel_mean            =   9.7271359802529E-06
(PID.TID 0000.0001) %MON dynstat_vvel_sd              =   3.2487523186868E-04
(PID.TID 0000.0001) %MON dynstat_vvel_del2            =   2.4183380878753E-07
(PID.TID 0000.0001) %MON dynstat_wvel_max             =   7.8907944570511E-05
(PID.TID 0000.0001) %MON dynstat_wvel_min             =  -6.5966049984524E-05
(PID.TID 0000.0001) %MON dynstat_wvel_mean            =   3.6458163783008E-08
(PID.TID 0000.0001) %MON dynstat_wvel_sd              =   1.0425388676666E-06
(PID.TID 0000.0001) %MON dynstat_wvel_del2            =   2.0045586787988E-09
(PID.TID 0000.0001) %MON dynstat_theta_max            =   1.6580072166916E+01
(PID.TID 0000.0001) %MON dynstat_theta_min            =   4.2486506399926E+00
(PID.TID 0000.0001) %MON dynstat_theta_mean           =   7.6151826870164E+00
(PID.TID 0000.0001) %MON dynstat_theta_sd             =   3.6061884252844E+00
(PID.TID 0000.0001) %MON dynstat_theta_del2           =   1.8339724778568E-07
(PID.TID 0000.0001) %MON dynstat_salt_max             =   3.4471549003419E+01
(PID.TID 0000.0001) %MON dynstat_salt_min             =   3.3629969437525E+01
(PID.TID 0000.0001) %MON dynstat_salt_mean            =   3.4187265059344E+01
(PID.TID 0000.0001) %MON dynstat_salt_sd              =   2.7103653915006E-01
(PID.TID 0000.0001) %MON dynstat_salt_del2            =   7.4772187065680E-09
(PID.TID 0000.0001) %MON trAdv_CFL_u_max              =   2.7466583595739E-03
(PID.TID 0000.0001) %MON trAdv_CFL_v_max              =   8.6905104549490E-04
(PID.TID 0000.0001) %MON trAdv_CFL_w_max              =   8.9414191367212E-04
(PID.TID 0000.0001) %MON advcfl_uvel_max              =   2.7409829234574E-03
(PID.TID 0000.0001) %MON advcfl_vvel_max              =   8.0765783880868E-04
(PID.TID 0000.0001) %MON advcfl_wvel_max              =   8.3253289110586E-04
(PID.TID 0000.0001) %MON advcfl_W_hf_max              =   9.0492705554985E-04
(PID.TID 0000.0001) %MON pe_b_mean                    =   1.8959280933987E-09
(PID.TID 0000.0001) %MON ke_max                       =   6.0828109049265E-03
(PID.TID 0000.0001) %MON ke_mean                      =   6.6141681437344E-06
(PID.TID 0000.0001) %MON ke_vol                       =   8.2760855027014E+14
(PID.TID 0000.0001) %MON vort_r_min                   =  -1.9530329435569E-05
(PID.TID 0000.0001) %MON vort_r_max                   =   4.1127562736161E-05
(PID.TID 0000.0001) %MON vort_a_mean                  =   6.9582958995909E-04
(PID.TID 0000.0001) %MON vort_a_sd                    =   1.4303482998284E-06
(PID.TID 0000.0001) %MON vort_p_mean                  =   7.0012686801198E-04
(PID.TID 0000.0001) %MON vort_p_sd                    =   9.4520936434139E-05
(PID.TID 0000.0001) %MON surfExpan_theta_mean         =   7.9042989029921E-13
(PID.TID 0000.0001) %MON surfExpan_salt_mean          =   2.8050235456463E-21
(PID.TID 0000.0001) // =======================================================
(PID.TID 0000.0001) // End MONITOR dynamic field statistics
(PID.TID 0000.0001) // =======================================================
(PID.TID 0000.0001) // =======================================================
(PID.TID 0000.0001) // Begin OBCS MONITOR field statistics
(PID.TID 0000.0001) // =======================================================
(PID.TID 0000.0001) %MON obc_S_vVel_max               =   1.1775606959497E-04
(PID.TID 0000.0001) %MON obc_S_vVel_min               =  -1.5437679187779E-02
(PID.TID 0000.0001) %MON obc_S_vVel_mean              =   2.1960708346696E-20
(PID.TID 0000.0001) %MON obc_S_vVel_sd                =   6.9443542670245E-04
(PID.TID 0000.0001) %MON obc_S_vVel_Int               =   3.7289282772690E-11
(PID.TID 0000.0001) // =======================================================
(PID.TID 0000.0001) // End OBCS MONITOR field statistics
(PID.TID 0000.0001) // =======================================================
 EXTERNAL_FIELDS_LOAD,       840 : iP,iLd,i0,i1=   42   43   42   43 ; Wght=  0.5000000000  0.5000000000
 cg2d: Sum(rhs),rhsMax =   4.85167461761193E-13  2.10364632047720E-03
 EXTERNAL_FIELDS_LOAD,       841 : iP,iLd,i0,i1=   42   43   42   43 ; Wght=  0.4500000000  0.5500000000
 cg2d: Sum(rhs),rhsMax =   1.12243547789603E-12  2.11433749912533E-03
 EXTERNAL_FIELDS_LOAD,       842 : iP,iLd,i0,i1=   42   43   42   43 ; Wght=  0.4000000000  0.6000000000
 cg2d: Sum(rhs),rhsMax =   7.38520355980654E-13  2.12011695388472E-03
 EXTERNAL_FIELDS_LOAD,       843 : iP,iLd,i0,i1=   42   43   42   43 ; Wght=  0.3500000000  0.6500000000
 cg2d: Sum(rhs),rhsMax =   6.13953332617712E-13  2.12102941430986E-03
 EXTERNAL_FIELDS_LOAD,       844 : iP,iLd,i0,i1=   42   43   42   43 ; Wght=  0.3000000000  0.7000000000
 cg2d: Sum(rhs),rhsMax =   5.76871883595231E-13  2.11712852852971E-03
 EXTERNAL_FIELDS_LOAD,       845 : iP,iLd,i0,i1=   42   43   42   43 ; Wght=  0.2500000000  0.7500000000
 cg2d: Sum(rhs),rhsMax =   4.26769730665910E-13  2.10847629043747E-03
 EXTERNAL_FIELDS_LOAD,       846 : iP,iLd,i0,i1=   42   43   42   43 ; Wght=  0.2000000000  0.8000000000
 cg2d: Sum(rhs),rhsMax =   1.06137321154165E-13  2.09514253607759E-03
 EXTERNAL_FIELDS_LOAD,       847 : iP,iLd,i0,i1=   42   43   42   43 ; Wght=  0.1500000000  0.8500000000
 cg2d: Sum(rhs),rhsMax =   8.12683254025615E-13  2.07720451281943E-03
 EXTERNAL_FIELDS_LOAD,       848 : iP,iLd,i0,i1=   42   43   42   43 ; Wght=  0.1000000000  0.9000000000
 cg2d: Sum(rhs),rhsMax =   8.21565038222616E-13  2.05474652207639E-03
 EXTERNAL_FIELDS_LOAD,       849 : iP,iLd,i0,i1=   42   43   42   43 ; Wght=  0.0500000000  0.9500000000
 cg2d: Sum(rhs),rhsMax =   1.99840144432528E-14  2.02785963498255E-03
 EXTERNAL_FIELDS_LOAD,       850 : iP,iLd,i0,i1=   42   43   43   44 ; Wght=  1.0000000000  0.0000000000
 EXTERNAL_FIELDS_LOAD, it=       850 : Reading new data, i0,i1=   43   44 (prev=   42   43 )
(PID.TID 0000.0001)  MDS_READ_FIELD: opening global file: ../input/merid_halfgauss2p5hr_272x320.bin
(PID.TID 0000.0001)  MDS_READ_FIELD: opening global file: ../input/merid_halfgauss2p5hr_272x320.bin
 cg2d: Sum(rhs),rhsMax =   1.04360964314765E-12  1.99664147869220E-03
 EXTERNAL_FIELDS_LOAD,       851 : iP,iLd,i0,i1=   43   44   43   44 ; Wght=  0.9500000000  0.0500000000
 cg2d: Sum(rhs),rhsMax =   4.56523707725864E-13  1.96119608936673E-03
 EXTERNAL_FIELDS_LOAD,       852 : iP,iLd,i0,i1=   43   44   43   44 ; Wght=  0.9000000000  0.1000000000
 cg2d: Sum(rhs),rhsMax =   4.47641923528863E-13  1.92163382642701E-03
 EXTERNAL_FIELDS_LOAD,       853 : iP,iLd,i0,i1=   43   44   43   44 ; Wght=  0.8500000000  0.1500000000
 cg2d: Sum(rhs),rhsMax =   7.12319092599500E-13  1.87807134130329E-03
 EXTERNAL_FIELDS_LOAD,       854 : iP,iLd,i0,i1=   43   44   43   44 ; Wght=  0.8000000000  0.2000000000
 cg2d: Sum(rhs),rhsMax =   8.90842954959226E-13  1.83258840687168E-03
 EXTERNAL_FIELDS_LOAD,       855 : iP,iLd,i0,i1=   43   44   43   44 ; Wght=  0.7500000000  0.2500000000
 cg2d: Sum(rhs),rhsMax =   6.49258424800792E-13  1.81537693361992E-03
 EXTERNAL_FIELDS_LOAD,       856 : iP,iLd,i0,i1=   43   44   43   44 ; Wght=  0.7000000000  0.3000000000
 cg2d: Sum(rhs),rhsMax =   9.15711950710829E-13  1.79435107366387E-03
 EXTERNAL_FIELDS_LOAD,       857 : iP,iLd,i0,i1=   43   44   43   44 ; Wght=  0.6500000000  0.3500000000
 cg2d: Sum(rhs),rhsMax =   3.12638803734444E-13  1.76957072526040E-03
 EXTERNAL_FIELDS_LOAD,       858 : iP,iLd,i0,i1=   43   44   43   44 ; Wght=  0.6000000000  0.4000000000
 cg2d: Sum(rhs),rhsMax =   6.01296790136985E-13  1.74110387763835E-03
 EXTERNAL_FIELDS_LOAD,       859 : iP,iLd,i0,i1=   43   44   43   44 ; Wght=  0.5500000000  0.4500000000
 cg2d: Sum(rhs),rhsMax =   6.99884594723699E-13  1.70902655771422E-03
(PID.TID 0000.0001)      cg2d_init_res =   7.56858147634424E-01
(PID.TID 0000.0001)      cg2d_iters(min,last) =      -1      34
(PID.TID 0000.0001)      cg2d_last_res =   8.40837364838449E-08
(PID.TID 0000.0001) // =======================================================
(PID.TID 0000.0001) // Begin MONITOR dynamic field statistics
(PID.TID 0000.0001) // =======================================================
(PID.TID 0000.0001) %MON time_tsnumber                =                   860
(PID.TID 0000.0001) %MON time_secondsf                =   5.1600000000000E+04
(PID.TID 0000.0001) %MON dynstat_eta_max              =   1.2018313047085E-02
(PID.TID 0000.0001) %MON dynstat_eta_min              =  -9.3851759244172E-03
(PID.TID 0000.0001) %MON dynstat_eta_mean             =  -1.6504396604061E-19
(PID.TID 0000.0001) %MON dynstat_eta_sd               =   4.8557984513113E-04
(PID.TID 0000.0001) %MON dynstat_eta_del2             =   2.5172437763401E-07
(PID.TID 0000.0001) %MON dynstat_uvel_max             =   4.6583013687984E-02
(PID.TID 0000.0001) %MON dynstat_uvel_min             =  -6.5911676265294E-02
(PID.TID 0000.0001) %MON dynstat_uvel_mean            =   2.4651213392460E-05
(PID.TID 0000.0001) %MON dynstat_uvel_sd              =   2.3019556953220E-03
(PID.TID 0000.0001) %MON dynstat_uvel_del2            =   2.5466187148462E-07
(PID.TID 0000.0001) %MON dynstat_vvel_max             =   7.4167399243164E-02
(PID.TID 0000.0001) %MON dynstat_vvel_min             =  -2.1885552164183E-02
(PID.TID 0000.0001) %MON dynstat_vvel_mean            =  -4.5269840586646E-05
(PID.TID 0000.0001) %MON dynstat_vvel_sd              =   2.8047501623918E-03
(PID.TID 0000.0001) %MON dynstat_vvel_del2            =   2.2868686685883E-07
(PID.TID 0000.0001) %MON dynstat_wvel_max             =   7.4628236476193E-05
(PID.TID 0000.0001) %MON dynstat_wvel_min             =  -7.9252152646148E-05
(PID.TID 0000.0001) %MON dynstat_wvel_mean            =  -9.4154420515104E-08
(PID.TID 0000.0001) %MON dynstat_wvel_sd              =   1.4057166985817E-06
(PID.TID 0000.0001) %MON dynstat_wvel_del2            =   1.9701341496033E-09
(PID.TID 0000.0001) %MON dynstat_theta_max            =   1.6580052205911E+01
(PID.TID 0000.0001) %MON dynstat_theta_min            =   4.2486324353801E+00
(PID.TID 0000.0001) %MON dynstat_theta_mean           =   7.6151834002477E+00
(PID.TID 0000.0001) %MON dynstat_theta_sd             =   3.6061880256515E+00
(PID.TID 0000.0001) %MON dynstat_theta_del2           =   1.8151099016547E-07
(PID.TID 0000.0001) %MON dynstat_salt_max             =   3.4471551051936E+01
(PID.TID 0000.0001) %MON dynstat_salt_min             =   3.3629962907783E+01
(PID.TID 0000.0001) %MON dynstat_salt_mean            =   3.4187265018519E+01
(PID.TID 0000.0001) %MON dynstat_salt_sd              =   2.7103651506390E-01
(PID.TID 0000.0001) %MON dynstat_salt_del2            =   7.3404482234666E-09
(PID.TID 0000.0001) %MON trAdv_CFL_u_max              =   2.1076116882486E-03
(PID.TID 0000.0001) %MON trAdv_CFL_v_max              =   2.1539027940153E-03
(PID.TID 0000.0001) %MON trAdv_CFL_w_max              =   1.1720952908591E-03
(PID.TID 0000.0001) %MON advcfl_uvel_max              =   2.0435164816116E-03
(PID.TID 0000.0001) %MON advcfl_vvel_max              =   2.2146132948093E-03
(PID.TID 0000.0001) %MON advcfl_wvel_max              =   1.0908859236731E-03
(PID.TID 0000.0001) %MON advcfl_W_hf_max              =   1.1857455692099E-03
(PID.TID 0000.0001) %MON pe_b_mean                    =   1.2360708814160E-09
(PID.TID 0000.0001) %MON ke_max                       =   4.7467569415935E-03
(PID.TID 0000.0001) %MON ke_mean                      =   6.5786880202576E-06
(PID.TID 0000.0001) %MON ke_vol                       =   8.2760855027014E+14
(PID.TID 0000.0001) %MON vort_r_min                   =  -1.8864844252437E-05
(PID.TID 0000.0001) %MON vort_r_max                   =   3.3972298744943E-05
(PID.TID 0000.0001) %MON vort_a_mean                  =   6.9582958995909E-04
(PID.TID 0000.0001) %MON vort_a_sd                    =   1.4283789287501E-06
(PID.TID 0000.0001) %MON vort_p_mean                  =   7.0012686801198E-04
(PID.TID 0000.0001) %MON vort_p_sd                    =   9.4520645404696E-05
(PID.TID 0000.0001) %MON surfExpan_theta_mean         =   1.3135717057276E-12
(PID.TID 0000.0001) %MON surfExpan_salt_mean          =   2.0729206261081E-21
(PID.TID 0000.0001) // =======================================================
(PID.TID 0000.0001) // End MONITOR dynamic field statistics
(PID.TID 0000.0001) // =======================================================
(PID.TID 0000.0001) // =======================================================
(PID.TID 0000.0001) // Begin OBCS MONITOR field statistics
(PID.TID 0000.0001) // =======================================================
(PID.TID 0000.0001) %MON obc_S_vVel_max               =   5.0782273745394E-02
(PID.TID 0000.0001) %MON obc_S_vVel_min               =  -2.4976450245157E-04
(PID.TID 0000.0001) %MON obc_S_vVel_mean              =   1.4692919044764E-19
(PID.TID 0000.0001) %MON obc_S_vVel_sd                =   2.2822188743109E-03
(PID.TID 0000.0001) %MON obc_S_vVel_Int               =   2.4948576538009E-10
(PID.TID 0000.0001) // =======================================================
(PID.TID 0000.0001) // End OBCS MONITOR field statistics
(PID.TID 0000.0001) // =======================================================
 EXTERNAL_FIELDS_LOAD,       860 : iP,iLd,i0,i1=   43   44   43   44 ; Wght=  0.5000000000  0.5000000000
 cg2d: Sum(rhs),rhsMax =   6.75015598972095E-13  1.67342276745186E-03
 EXTERNAL_FIELDS_LOAD,       861 : iP,iLd,i0,i1=   43   44   43   44 ; Wght=  0.4500000000  0.5500000000
 cg2d: Sum(rhs),rhsMax =   6.48370246381091E-13  1.63438440779960E-03
 EXTERNAL_FIELDS_LOAD,       862 : iP,iLd,i0,i1=   43   44   43   44 ; Wght=  0.4000000000  0.6000000000
 cg2d: Sum(rhs),rhsMax =   9.73443547991337E-13  1.59201118534783E-03
 EXTERNAL_FIELDS_LOAD,       863 : iP,iLd,i0,i1=   43   44   43   44 ; Wght=  0.3500000000  0.6500000000
 cg2d: Sum(rhs),rhsMax =   2.38031816479634E-13  1.54641049814672E-03
 EXTERNAL_FIELDS_LOAD,       864 : iP,iLd,i0,i1=   43   44   43   44 ; Wght=  0.3000000000  0.7000000000
 cg2d: Sum(rhs),rhsMax =   7.22977233635902E-13  1.49769729749730E-03
 EXTERNAL_FIELDS_LOAD,       865 : iP,iLd,i0,i1=   43   44   43   44 ; Wght=  0.2500000000  0.7500000000
 cg2d: Sum(rhs),rhsMax =   5.63105118089879E-13  1.44599392317344E-03
 EXTERNAL_FIELDS_LOAD,       866 : iP,iLd,i0,i1=   43   44   43   44 ; Wght=  0.2000000000  0.8000000000
 cg2d: Sum(rhs),rhsMax =   7.08766378920700E-13  1.40115916492764E-03
 EXTERNAL_FIELDS_LOAD,       867 : iP,iLd,i0,i1=   43   44   43   44 ; Wght=  0.1500000000  0.8500000000
 cg2d: Sum(rhs),rhsMax =   6.91002810526697E-13  1.37729916553585E-03
 EXTERNAL_FIELDS_LOAD,       868 : iP,iLd,i0,i1=   43   44   43   44 ; Wght=  0.1000000000  0.9000000000
 cg2d: Sum(rhs),rhsMax =   9.11271058612328E-13  1.35053932231011E-03
 EXTERNAL_FIELDS_LOAD,       869 : iP,iLd,i0,i1=   43   44   43   44 ; Wght=  0.0500000000  0.9500000000
 cg2d: Sum(rhs),rhsMax =   7.79820652496710E-13  1.32092416801548E-03
 EXTERNAL_FIELDS_LOAD,       870 : iP,iLd,i0,i1=   43   44   44   45 ; Wght=  1.0000000000  0.0000000000
 EXTERNAL_FIELDS_LOAD, it=       870 : Reading new data, i0,i1=   44   45 (prev=   43   44 )
(PID.TID 0000.0001)  MDS_READ_FIELD: opening global file: ../input/merid_halfgauss2p5hr_272x320.bin
(PID.TID 0000.0001)  MDS_READ_FIELD: opening global file: ../input/merid_halfgauss2p5hr_272x320.bin
 cg2d: Sum(rhs),rhsMax =   8.52651282912120E-13  1.28850678818734E-03
 EXTERNAL_FIELDS_LOAD,       871 : iP,iLd,i0,i1=   44   45   44   45 ; Wght=  0.9500000000  0.0500000000
 cg2d: Sum(rhs),rhsMax =   1.04094510788855E-12  1.25334873474652E-03
 EXTERNAL_FIELDS_LOAD,       872 : iP,iLd,i0,i1=   44   45   44   45 ; Wght=  0.9000000000  0.1000000000
 cg2d: Sum(rhs),rhsMax =   9.46798195400333E-13  1.21551990276794E-03
 EXTERNAL_FIELDS_LOAD,       873 : iP,iLd,i0,i1=   44   45   44   45 ; Wght=  0.8500000000  0.1500000000
 cg2d: Sum(rhs),rhsMax =   8.68638494466722E-13  1.17509837125833E-03
 EXTERNAL_FIELDS_LOAD,       874 : iP,iLd,i0,i1=   44   45   44   45 ; Wght=  0.8000000000  0.2000000000
 cg2d: Sum(rhs),rhsMax =   1.10311759726756E-12  1.13217020917997E-03
 EXTERNAL_FIELDS_LOAD,       875 : iP,iLd,i0,i1=   44   45   44   45 ; Wght=  0.7500000000  0.2500000000
 cg2d: Sum(rhs),rhsMax =   1.25943699913478E-12  1.08682924830162E-03
 EXTERNAL_FIELDS_LOAD,       876 : iP,iLd,i0,i1=   44   45   44   45 ; Wght=  0.7000000000  0.3000000000
 cg2d: Sum(rhs),rhsMax =   1.33226762955019E-12  1.03917682475595E-03
 EXTERNAL_FIELDS_LOAD,       877 : iP,iLd,i0,i1=   44   45   44   45 ; Wght=  0.6500000000  0.3500000000
 cg2d: Sum(rhs),rhsMax =   1.16884280032536E-12  1.00514020710247E-03
 EXTERNAL_FIELDS_LOAD,       878 : iP,iLd,i0,i1=   44   45   44   45 ; Wght=  0.6000000000  0.4000000000
 cg2d: Sum(rhs),rhsMax =   9.84101689027739E-13  1.03294688162523E-03
 EXTERNAL_FIELDS_LOAD,       879 : iP,iLd,i0,i1=   44   45   44   45 ; Wght=  0.5500000000  0.4500000000
 cg2d: Sum(rhs),rhsMax =   9.61009050115536E-13  1.06976267888763E-03
(PID.TID 0000.0001)      cg2d_init_res =   1.25854298517790E+00
(PID.TID 0000.0001)      cg2d_iters(min,last) =      -1      35
(PID.TID 0000.0001)      cg2d_last_res =   8.12903436907006E-08
(PID.TID 0000.0001) // =======================================================
(PID.TID 0000.0001) // Begin MONITOR dynamic field statistics
(PID.TID 0000.0001) // =======================================================
(PID.TID 0000.0001) %MON time_tsnumber                =                   880
(PID.TID 0000.0001) %MON time_secondsf                =   5.2800000000000E+04
(PID.TID 0000.0001) %MON dynstat_eta_max              =   1.2399507323264E-02
(PID.TID 0000.0001) %MON dynstat_eta_min              =  -1.0129597436538E-02
(PID.TID 0000.0001) %MON dynstat_eta_mean             =  -1.6478073802460E-19
(PID.TID 0000.0001) %MON dynstat_eta_sd               =   4.8899100494472E-04
(PID.TID 0000.0001) %MON dynstat_eta_del2             =   2.5574966198371E-07
(PID.TID 0000.0001) %MON dynstat_uvel_max             =   4.2906433941361E-02
(PID.TID 0000.0001) %MON dynstat_uvel_min             =  -3.3756695000046E-02
(PID.TID 0000.0001) %MON dynstat_uvel_mean            =  -1.9101115472204E-05
(PID.TID 0000.0001) %MON dynstat_uvel_sd              =   6.0803795639298E-04
(PID.TID 0000.0001) %MON dynstat_uvel_del2            =   2.3724944477193E-07
(PID.TID 0000.0001) %MON dynstat_vvel_max             =   8.9184333428800E-02
(PID.TID 0000.0001) %MON dynstat_vvel_min             =  -2.3362123400665E-02
(PID.TID 0000.0001) %MON dynstat_vvel_mean            =  -4.8062748542486E-05
(PID.TID 0000.0001) %MON dynstat_vvel_sd              =   3.5699788238341E-03
(PID.TID 0000.0001) %MON dynstat_vvel_del2            =   2.3318058288371E-07
(PID.TID 0000.0001) %MON dynstat_wvel_max             =   7.3579180768918E-05
(PID.TID 0000.0001) %MON dynstat_wvel_min             =  -8.5965461660842E-05
(PID.TID 0000.0001) %MON dynstat_wvel_mean            =  -1.6320824158696E-07
(PID.TID 0000.0001) %MON dynstat_wvel_sd              =   1.4922616056408E-06
(PID.TID 0000.0001) %MON dynstat_wvel_del2            =   1.9518484250901E-09
(PID.TID 0000.0001) %MON dynstat_theta_max            =   1.6580031197661E+01
(PID.TID 0000.0001) %MON dynstat_theta_min            =   4.2486203226573E+00
(PID.TID 0000.0001) %MON dynstat_theta_mean           =   7.6151862674571E+00
(PID.TID 0000.0001) %MON dynstat_theta_sd             =   3.6061899324911E+00
(PID.TID 0000.0001) %MON dynstat_theta_del2           =   1.7867977837775E-07
(PID.TID 0000.0001) %MON dynstat_salt_max             =   3.4471552415693E+01
(PID.TID 0000.0001) %MON dynstat_salt_min             =   3.3629955275401E+01
(PID.TID 0000.0001) %MON dynstat_salt_mean            =   3.4187264846234E+01
(PID.TID 0000.0001) %MON dynstat_salt_sd              =   2.7103659551599E-01
(PID.TID 0000.0001) %MON dynstat_salt_del2            =   7.1592483559889E-09
(PID.TID 0000.0001) %MON trAdv_CFL_u_max              =   1.2887185283754E-03
(PID.TID 0000.0001) %MON trAdv_CFL_v_max              =   2.6820246899274E-03
(PID.TID 0000.0001) %MON trAdv_CFL_w_max              =   1.1902886895181E-03
(PID.TID 0000.0001) %MON advcfl_uvel_max              =   1.2817775082684E-03
(PID.TID 0000.0001) %MON advcfl_vvel_max              =   2.6630138378262E-03
(PID.TID 0000.0001) %MON advcfl_wvel_max              =   1.0831961796453E-03
(PID.TID 0000.0001) %MON advcfl_W_hf_max              =   1.1773871517883E-03
(PID.TID 0000.0001) %MON pe_b_mean                    =   1.2534984802809E-09
(PID.TID 0000.0001) %MON ke_max                       =   3.9428134422477E-03
(PID.TID 0000.0001) %MON ke_mean                      =   6.5440620781724E-06
(PID.TID 0000.0001) %MON ke_vol                       =   8.2760855027014E+14
(PID.TID 0000.0001) %MON vort_r_min                   =  -2.0997728140060E-05
(PID.TID 0000.0001) %MON vort_r_max                   =   2.1352858535563E-05
(PID.TID 0000.0001) %MON vort_a_mean                  =   6.9582958995909E-04
(PID.TID 0000.0001) %MON vort_a_sd                    =   1.4243610643367E-06
(PID.TID 0000.0001) %MON vort_p_mean                  =   7.0012686801198E-04
(PID.TID 0000.0001) %MON vort_p_sd                    =   9.4517335667781E-05
(PID.TID 0000.0001) %MON surfExpan_theta_mean         =  -2.7894913930197E-13
(PID.TID 0000.0001) %MON surfExpan_salt_mean          =  -2.5171179031313E-21
(PID.TID 0000.0001) // =======================================================
(PID.TID 0000.0001) // End MONITOR dynamic field statistics
(PID.TID 0000.0001) // =======================================================
(PID.TID 0000.0001) // =======================================================
(PID.TID 0000.0001) // Begin OBCS MONITOR field statistics
(PID.TID 0000.0001) // =======================================================
(PID.TID 0000.0001) %MON obc_S_vVel_max               =   8.3429231953809E-02
(PID.TID 0000.0001) %MON obc_S_vVel_min               =  -4.4125066294856E-04
(PID.TID 0000.0001) %MON obc_S_vVel_mean              =  -1.5322280808358E-19
(PID.TID 0000.0001) %MON obc_S_vVel_sd                =   3.7506721995607E-03
(PID.TID 0000.0001) %MON obc_S_vVel_Int               =  -2.6017232812592E-10
(PID.TID 0000.0001) // =======================================================
(PID.TID 0000.0001) // End OBCS MONITOR field statistics
(PID.TID 0000.0001) // =======================================================
 EXTERNAL_FIELDS_LOAD,       880 : iP,iLd,i0,i1=   44   45   44   45 ; Wght=  0.5000000000  0.5000000000
 cg2d: Sum(rhs),rhsMax =   9.98312543742941E-13  1.10652511518882E-03
 EXTERNAL_FIELDS_LOAD,       881 : iP,iLd,i0,i1=   44   45   44   45 ; Wght=  0.4500000000  0.5500000000
 cg2d: Sum(rhs),rhsMax =   1.05870867628255E-12  1.14314988907238E-03
 EXTERNAL_FIELDS_LOAD,       882 : iP,iLd,i0,i1=   44   45   44   45 ; Wght=  0.4000000000  0.6000000000
 cg2d: Sum(rhs),rhsMax =   9.14823772291129E-13  1.17955058056037E-03
 EXTERNAL_FIELDS_LOAD,       883 : iP,iLd,i0,i1=   44   45   44   45 ; Wght=  0.3500000000  0.6500000000
 cg2d: Sum(rhs),rhsMax =   8.26005930321116E-13  1.21563888633409E-03
 EXTERNAL_FIELDS_LOAD,       884 : iP,iLd,i0,i1=   44   45   44   45 ; Wght=  0.3000000000  0.7000000000
 cg2d: Sum(rhs),rhsMax =   1.12443387934036E-12  1.25333726388794E-03
 EXTERNAL_FIELDS_LOAD,       885 : iP,iLd,i0,i1=   44   45   44   45 ; Wght=  0.2500000000  0.7500000000
 cg2d: Sum(rhs),rhsMax =   5.57776047571679E-13  1.29568836898634E-03
 EXTERNAL_FIELDS_LOAD,       886 : iP,iLd,i0,i1=   44   45   44   45 ; Wght=  0.2000000000  0.8000000000
 cg2d: Sum(rhs),rhsMax =   6.46593889541691E-13  1.33770783842126E-03
 EXTERNAL_FIELDS_LOAD,       887 : iP,iLd,i0,i1=   44   45   44   45 ; Wght=  0.1500000000  0.8500000000
 cg2d: Sum(rhs),rhsMax =   9.89430759545940E-13  1.37930126811539E-03
 EXTERNAL_FIELDS_LOAD,       888 : iP,iLd,i0,i1=   44   45   44   45 ; Wght=  0.1000000000  0.9000000000
 cg2d: Sum(rhs),rhsMax =   9.46798195400333E-13  1.42037279185013E-03
 EXTERNAL_FIELDS_LOAD,       889 : iP,iLd,i0,i1=   44   45   44   45 ; Wght=  0.0500000000  0.9500000000
 cg2d: Sum(rhs),rhsMax =   5.08038056068472E-13  1.46082533966998E-03
 EXTERNAL_FIELDS_LOAD,       890 : iP,iLd,i0,i1=   44   45   45   46 ; Wght=  1.0000000000  0.0000000000
 EXTERNAL_FIELDS_LOAD, it=       890 : Reading new data, i0,i1=   45   46 (prev=   44   45 )
(PID.TID 0000.0001)  MDS_READ_FIELD: opening global file: ../input/merid_halfgauss2p5hr_272x320.bin
(PID.TID 0000.0001)  MDS_READ_FIELD: opening global file: ../input/merid_halfgauss2p5hr_272x320.bin
 cg2d: Sum(rhs),rhsMax =  -1.03028696685215E-13  1.50056091040852E-03
 EXTERNAL_FIELDS_LOAD,       891 : iP,iLd,i0,i1=   45   46   45   46 ; Wght=  0.9500000000  0.0500000000
 cg2d: Sum(rhs),rhsMax =   5.87974113841483E-13  1.53948085710809E-03
 EXTERNAL_FIELDS_LOAD,       892 : iP,iLd,i0,i1=   45   46   45   46 ; Wght=  0.9000000000  0.1000000000
 cg2d: Sum(rhs),rhsMax =   2.55795384873636E-13  1.57748618413837E-03
 EXTERNAL_FIELDS_LOAD,       893 : iP,iLd,i0,i1=   45   46   45   46 ; Wght=  0.8500000000  0.1500000000
 cg2d: Sum(rhs),rhsMax =   5.63993296509580E-13  1.61447785467467E-03
 EXTERNAL_FIELDS_LOAD,       894 : iP,iLd,i0,i1=   45   46   45   46 ; Wght=  0.8000000000  0.2000000000
 cg2d: Sum(rhs),rhsMax =   9.75219904830738E-13  1.65035710830281E-03
 EXTERNAL_FIELDS_LOAD,       895 : iP,iLd,i0,i1=   45   46   45   46 ; Wght=  0.7500000000  0.2500000000
 cg2d: Sum(rhs),rhsMax =   1.08801856413265E-12  1.68502578610538E-03
 EXTERNAL_FIELDS_LOAD,       896 : iP,iLd,i0,i1=   45   46   45   46 ; Wght=  0.7000000000  0.3000000000
 cg2d: Sum(rhs),rhsMax =   5.38236122338276E-13  1.71838666362609E-03
 EXTERNAL_FIELDS_LOAD,       897 : iP,iLd,i0,i1=   45   46   45   46 ; Wght=  0.6500000000  0.3500000000
 cg2d: Sum(rhs),rhsMax =   1.15640830244956E-12  1.75034379011679E-03
 EXTERNAL_FIELDS_LOAD,       898 : iP,iLd,i0,i1=   45   46   45   46 ; Wght=  0.6000000000  0.4000000000
 cg2d: Sum(rhs),rhsMax =   3.87245790989255E-13  1.78080283319489E-03
 EXTERNAL_FIELDS_LOAD,       899 : iP,iLd,i0,i1=   45   46   45   46 ; Wght=  0.5500000000  0.4500000000
 cg2d: Sum(rhs),rhsMax =   5.94191362779384E-13  1.80967142792927E-03
(PID.TID 0000.0001)      cg2d_init_res =   3.36744724898107E-01
(PID.TID 0000.0001)      cg2d_iters(min,last) =      -1      33
(PID.TID 0000.0001)      cg2d_last_res =   7.80560379685594E-08
(PID.TID 0000.0001) // =======================================================
(PID.TID 0000.0001) // Begin MONITOR dynamic field statistics
(PID.TID 0000.0001) // =======================================================
(PID.TID 0000.0001) %MON time_tsnumber                =                   900
(PID.TID 0000.0001) %MON time_secondsf                =   5.4000000000000E+04
(PID.TID 0000.0001) %MON dynstat_eta_max              =   1.0118777846413E-02
(PID.TID 0000.0001) %MON dynstat_eta_min              =  -1.2149423431016E-02
(PID.TID 0000.0001) %MON dynstat_eta_mean             =  -2.6507061212583E-19
(PID.TID 0000.0001) %MON dynstat_eta_sd               =   5.7471076285432E-04
(PID.TID 0000.0001) %MON dynstat_eta_del2             =   2.5880773945188E-07
(PID.TID 0000.0001) %MON dynstat_uvel_max             =   7.9793458280994E-02
(PID.TID 0000.0001) %MON dynstat_uvel_min             =  -3.0258923354354E-02
(PID.TID 0000.0001) %MON dynstat_uvel_mean            =  -4.0295474505962E-05
(PID.TID 0000.0001) %MON dynstat_uvel_sd              =   3.0018045380170E-03
(PID.TID 0000.0001) %MON dynstat_uvel_del2            =   2.3356232726910E-07
(PID.TID 0000.0001) %MON dynstat_vvel_max             =   6.2112853743336E-02
(PID.TID 0000.0001) %MON dynstat_vvel_min             =  -1.9030164898186E-02
(PID.TID 0000.0001) %MON dynstat_vvel_mean            =   2.6182993984861E-06
(PID.TID 0000.0001) %MON dynstat_vvel_sd              =   2.0057339960714E-03
(PID.TID 0000.0001) %MON dynstat_vvel_del2            =   2.2801841153618E-07
(PID.TID 0000.0001) %MON dynstat_wvel_max             =   7.5335066330530E-05
(PID.TID 0000.0001) %MON dynstat_wvel_min             =  -7.7517587100020E-05
(PID.TID 0000.0001) %MON dynstat_wvel_mean            =  -1.2636045326938E-07
(PID.TID 0000.0001) %MON dynstat_wvel_sd              =   1.1063050445874E-06
(PID.TID 0000.0001) %MON dynstat_wvel_del2            =   1.9086732462095E-09
(PID.TID 0000.0001) %MON dynstat_theta_max            =   1.6580009358461E+01
(PID.TID 0000.0001) %MON dynstat_theta_min            =   4.2486065767434E+00
(PID.TID 0000.0001) %MON dynstat_theta_mean           =   7.6151894266175E+00
(PID.TID 0000.0001) %MON dynstat_theta_sd             =   3.6061920939498E+00
(PID.TID 0000.0001) %MON dynstat_theta_del2           =   1.7812297859357E-07
(PID.TID 0000.0001) %MON dynstat_salt_max             =   3.4471553962382E+01
(PID.TID 0000.0001) %MON dynstat_salt_min             =   3.3629948441404E+01
(PID.TID 0000.0001) %MON dynstat_salt_mean            =   3.4187264654402E+01
(PID.TID 0000.0001) %MON dynstat_salt_sd              =   2.7103668813208E-01
(PID.TID 0000.0001) %MON dynstat_salt_del2            =   7.0857232151297E-09
(PID.TID 0000.0001) %MON trAdv_CFL_u_max              =   2.3324840277590E-03
(PID.TID 0000.0001) %MON trAdv_CFL_v_max              =   1.9228942653264E-03
(PID.TID 0000.0001) %MON trAdv_CFL_w_max              =   1.0802782716448E-03
(PID.TID 0000.0001) %MON advcfl_uvel_max              =   2.3837324787073E-03
(PID.TID 0000.0001) %MON advcfl_vvel_max              =   1.8546686695532E-03
(PID.TID 0000.0001) %MON advcfl_wvel_max              =   9.8675204982832E-04
(PID.TID 0000.0001) %MON advcfl_W_hf_max              =   1.0709869809112E-03
(PID.TID 0000.0001) %MON pe_b_mean                    =   1.7314929676812E-09
(PID.TID 0000.0001) %MON ke_max                       =   5.3226641174357E-03
(PID.TID 0000.0001) %MON ke_mean                      =   6.5095310674146E-06
(PID.TID 0000.0001) %MON ke_vol                       =   8.2760855027014E+14
(PID.TID 0000.0001) %MON vort_r_min                   =  -2.7371968888029E-05
(PID.TID 0000.0001) %MON vort_r_max                   =   1.9856110842682E-05
(PID.TID 0000.0001) %MON vort_a_mean                  =   6.9582958995909E-04
(PID.TID 0000.0001) %MON vort_a_sd                    =   1.4266195031368E-06
(PID.TID 0000.0001) %MON vort_p_mean                  =   7.0012686801198E-04
(PID.TID 0000.0001) %MON vort_p_sd                    =   9.4513639942736E-05
(PID.TID 0000.0001) %MON surfExpan_theta_mean         =  -1.5186015481566E-12
(PID.TID 0000.0001) %MON surfExpan_salt_mean          =   2.6980871641408E-21
(PID.TID 0000.0001) // =======================================================
(PID.TID 0000.0001) // End MONITOR dynamic field statistics
(PID.TID 0000.0001) // =======================================================
(PID.TID 0000.0001) // =======================================================
(PID.TID 0000.0001) // Begin OBCS MONITOR field statistics
(PID.TID 0000.0001) // =======================================================
(PID.TID 0000.0001) %MON obc_S_vVel_max               =   6.2112853743336E-02
(PID.TID 0000.0001) %MON obc_S_vVel_min               =  -3.5242894536377E-04
(PID.TID 0000.0001) %MON obc_S_vVel_mean              =  -3.6887127301091E-20
(PID.TID 0000.0001) %MON obc_S_vVel_sd                =   2.7931700467773E-03
(PID.TID 0000.0001) %MON obc_S_vVel_Int               =  -6.2634342157253E-11
(PID.TID 0000.0001) // =======================================================
(PID.TID 0000.0001) // End OBCS MONITOR field statistics
(PID.TID 0000.0001) // =======================================================
 EXTERNAL_FIELDS_LOAD,       900 : iP,iLd,i0,i1=   45   46   45   46 ; Wght=  0.5000000000  0.5000000000
 cg2d: Sum(rhs),rhsMax =   7.01660951563099E-13  1.83685952934231E-03
 EXTERNAL_FIELDS_LOAD,       901 : iP,iLd,i0,i1=   45   46   45   46 ; Wght=  0.4500000000  0.5500000000
 cg2d: Sum(rhs),rhsMax =   1.13242748511766E-12  1.86227976726403E-03
 EXTERNAL_FIELDS_LOAD,       902 : iP,iLd,i0,i1=   45   46   45   46 ; Wght=  0.4000000000  0.6000000000
 cg2d: Sum(rhs),rhsMax =   1.12754250380931E-12  1.88584780240045E-03
 EXTERNAL_FIELDS_LOAD,       903 : iP,iLd,i0,i1=   45   46   45   46 ; Wght=  0.3500000000  0.6500000000
 cg2d: Sum(rhs),rhsMax =   3.78808096002103E-13  1.90748268238750E-03
 EXTERNAL_FIELDS_LOAD,       904 : iP,iLd,i0,i1=   45   46   45   46 ; Wght=  0.3000000000  0.7000000000
 cg2d: Sum(rhs),rhsMax =   4.07673894642357E-13  1.93200584089805E-03
 EXTERNAL_FIELDS_LOAD,       905 : iP,iLd,i0,i1=   45   46   45   46 ; Wght=  0.2500000000  0.7500000000
 cg2d: Sum(rhs),rhsMax =   8.51319015282570E-13  1.96024877415883E-03
 EXTERNAL_FIELDS_LOAD,       906 : iP,iLd,i0,i1=   45   46   45   46 ; Wght=  0.2000000000  0.8000000000
 cg2d: Sum(rhs),rhsMax =   7.18536341537401E-13  1.98654964333790E-03
 EXTERNAL_FIELDS_LOAD,       907 : iP,iLd,i0,i1=   45   46   45   46 ; Wght=  0.1500000000  0.8500000000
 cg2d: Sum(rhs),rhsMax =   1.16751053269581E-12  2.01082661892624E-03
 EXTERNAL_FIELDS_LOAD,       908 : iP,iLd,i0,i1=   45   46   45   46 ; Wght=  0.1000000000  0.9000000000
 cg2d: Sum(rhs),rhsMax =   4.88498130835069E-13  2.03300120095104E-03
 EXTERNAL_FIELDS_LOAD,       909 : iP,iLd,i0,i1=   45   46   45   46 ; Wght=  0.0500000000  0.9500000000
 cg2d: Sum(rhs),rhsMax =   5.67546010188380E-13  2.05299854967456E-03
 EXTERNAL_FIELDS_LOAD,       910 : iP,iLd,i0,i1=   45   46   46   47 ; Wght=  1.0000000000  0.0000000000
 EXTERNAL_FIELDS_LOAD, it=       910 : Reading new data, i0,i1=   46   47 (prev=   45   46 )
(PID.TID 0000.0001)  MDS_READ_FIELD: opening global file: ../input/merid_halfgauss2p5hr_272x320.bin
(PID.TID 0000.0001)  MDS_READ_FIELD: opening global file: ../input/merid_halfgauss2p5hr_272x320.bin
 cg2d: Sum(rhs),rhsMax =   1.02629016396349E-12  2.07074782015816E-03
 EXTERNAL_FIELDS_LOAD,       911 : iP,iLd,i0,i1=   46   47   46   47 ; Wght=  0.9500000000  0.0500000000
 cg2d: Sum(rhs),rhsMax =   3.05311331771918E-13  2.08618249980279E-03
 EXTERNAL_FIELDS_LOAD,       912 : iP,iLd,i0,i1=   46   47   46   47 ; Wght=  0.9000000000  0.1000000000
 cg2d: Sum(rhs),rhsMax =   4.04343225568482E-13  2.09924074782676E-03
 EXTERNAL_FIELDS_LOAD,       913 : iP,iLd,i0,i1=   46   47   46   47 ; Wght=  0.8500000000  0.1500000000
 cg2d: Sum(rhs),rhsMax =   7.38187289073267E-13  2.10986573545651E-03
 EXTERNAL_FIELDS_LOAD,       914 : iP,iLd,i0,i1=   46   47   46   47 ; Wght=  0.8000000000  0.2000000000
 cg2d: Sum(rhs),rhsMax =   4.99156271871470E-13  2.11800598538825E-03
 EXTERNAL_FIELDS_LOAD,       915 : iP,iLd,i0,i1=   46   47   46   47 ; Wght=  0.7500000000  0.2500000000
 cg2d: Sum(rhs),rhsMax =   8.28337398672829E-13  2.12361570882996E-03
 EXTERNAL_FIELDS_LOAD,       916 : iP,iLd,i0,i1=   46   47   46   47 ; Wght=  0.7000000000  0.3000000000
 cg2d: Sum(rhs),rhsMax =   5.09758901756641E-13  2.12665513816009E-03
 EXTERNAL_FIELDS_LOAD,       917 : iP,iLd,i0,i1=   46   47   46   47 ; Wght=  0.6500000000  0.3500000000
 cg2d: Sum(rhs),rhsMax =   5.38971645092090E-13  2.12709085295180E-03
 EXTERNAL_FIELDS_LOAD,       918 : iP,iLd,i0,i1=   46   47   46   47 ; Wght=  0.6000000000  0.4000000000
 cg2d: Sum(rhs),rhsMax =   6.76403377752877E-13  2.12489609681981E-03
 EXTERNAL_FIELDS_LOAD,       919 : iP,iLd,i0,i1=   46   47   46   47 ; Wght=  0.5500000000  0.4500000000
 cg2d: Sum(rhs),rhsMax =   5.70654634657330E-13  2.12005108226417E-03
(PID.TID 0000.0001)      cg2d_init_res =   5.87152779398024E-01
(PID.TID 0000.0001)      cg2d_iters(min,last) =      -1      33
(PID.TID 0000.0001)      cg2d_last_res =   9.39102108202212E-08
(PID.TID 0000.0001) // =======================================================
(PID.TID 0000.0001) // Begin MONITOR dynamic field statistics
(PID.TID 0000.0001) // =======================================================
(PID.TID 0000.0001) %MON time_tsnumber                =                   920
(PID.TID 0000.0001) %MON time_secondsf                =   5.5200000000000E+04
(PID.TID 0000.0001) %MON dynstat_eta_max              =   7.4191253696295E-03
(PID.TID 0000.0001) %MON dynstat_eta_min              =  -1.2793511734487E-02
(PID.TID 0000.0001) %MON dynstat_eta_mean             =  -2.0752238712483E-19
(PID.TID 0000.0001) %MON dynstat_eta_sd               =   4.4370977898873E-04
(PID.TID 0000.0001) %MON dynstat_eta_del2             =   2.5954505574279E-07
(PID.TID 0000.0001) %MON dynstat_uvel_max             =   8.6954104141753E-02
(PID.TID 0000.0001) %MON dynstat_uvel_min             =  -3.0283757360804E-02
(PID.TID 0000.0001) %MON dynstat_uvel_mean            =  -1.6057166636765E-05
(PID.TID 0000.0001) %MON dynstat_uvel_sd              =   3.4760821882167E-03
(PID.TID 0000.0001) %MON dynstat_uvel_del2            =   2.4150290253038E-07
(PID.TID 0000.0001) %MON dynstat_vvel_max             =   2.5376334108390E-02
(PID.TID 0000.0001) %MON dynstat_vvel_min             =  -3.5123204704430E-02
(PID.TID 0000.0001) %MON dynstat_vvel_mean            =   4.8831117607334E-05
(PID.TID 0000.0001) %MON dynstat_vvel_sd              =   9.3029952536864E-04
(PID.TID 0000.0001) %MON dynstat_vvel_del2            =   2.0704444629218E-07
(PID.TID 0000.0001) %MON dynstat_wvel_max             =   7.7173733702642E-05
(PID.TID 0000.0001) %MON dynstat_wvel_min             =  -6.3626781556069E-05
(PID.TID 0000.0001) %MON dynstat_wvel_mean            =  -7.2129697851295E-09
(PID.TID 0000.0001) %MON dynstat_wvel_sd              =   1.1124608181797E-06
(PID.TID 0000.0001) %MON dynstat_wvel_del2            =   1.8535171641786E-09
(PID.TID 0000.0001) %MON dynstat_theta_max            =   1.6579987460949E+01
(PID.TID 0000.0001) %MON dynstat_theta_min            =   4.2485878954022E+00
(PID.TID 0000.0001) %MON dynstat_theta_mean           =   7.6151908222089E+00
(PID.TID 0000.0001) %MON dynstat_theta_sd             =   3.6061922843777E+00
(PID.TID 0000.0001) %MON dynstat_theta_del2           =   1.7879300828756E-07
(PID.TID 0000.0001) %MON dynstat_salt_max             =   3.4471556064628E+01
(PID.TID 0000.0001) %MON dynstat_salt_min             =   3.3629944214668E+01
(PID.TID 0000.0001) %MON dynstat_salt_mean            =   3.4187264567749E+01
(PID.TID 0000.0001) %MON dynstat_salt_sd              =   2.7103669228204E-01
(PID.TID 0000.0001) %MON dynstat_salt_del2            =   7.0737991687221E-09
(PID.TID 0000.0001) %MON trAdv_CFL_u_max              =   2.6236439764805E-03
(PID.TID 0000.0001) %MON trAdv_CFL_v_max              =   9.6306077740090E-04
(PID.TID 0000.0001) %MON trAdv_CFL_w_max              =   8.1804384112457E-04
(PID.TID 0000.0001) %MON advcfl_uvel_max              =   2.5977127307833E-03
(PID.TID 0000.0001) %MON advcfl_vvel_max              =   1.0487669365312E-03
(PID.TID 0000.0001) %MON advcfl_wvel_max              =   7.6500787511618E-04
(PID.TID 0000.0001) %MON advcfl_W_hf_max              =   8.3153029903932E-04
(PID.TID 0000.0001) %MON pe_b_mean                    =   1.0320959450852E-09
(PID.TID 0000.0001) %MON ke_max                       =   5.7033009257851E-03
(PID.TID 0000.0001) %MON ke_mean                      =   6.4754314764249E-06
(PID.TID 0000.0001) %MON ke_vol                       =   8.2760855027014E+14
(PID.TID 0000.0001) %MON vort_r_min                   =  -4.1602114139104E-05
(PID.TID 0000.0001) %MON vort_r_max                   =   2.1649166657588E-05
(PID.TID 0000.0001) %MON vort_a_mean                  =   6.9582958995909E-04
(PID.TID 0000.0001) %MON vort_a_sd                    =   1.4298930041471E-06
(PID.TID 0000.0001) %MON vort_p_mean                  =   7.0012686801198E-04
(PID.TID 0000.0001) %MON vort_p_sd                    =   9.4512004041337E-05
(PID.TID 0000.0001) %MON surfExpan_theta_mean         =  -1.3110065868056E-12
(PID.TID 0000.0001) %MON surfExpan_salt_mean          =   9.0073336729699E-22
(PID.TID 0000.0001) // =======================================================
(PID.TID 0000.0001) // End MONITOR dynamic field statistics
(PID.TID 0000.0001) // =======================================================
(PID.TID 0000.0001) // =======================================================
(PID.TID 0000.0001) // Begin OBCS MONITOR field statistics
(PID.TID 0000.0001) // =======================================================
(PID.TID 0000.0001) %MON obc_S_vVel_max               =   2.2787393220457E-04
(PID.TID 0000.0001) %MON obc_S_vVel_min               =  -3.5990989970074E-05
(PID.TID 0000.0001) %MON obc_S_vVel_mean              =  -9.3734730748093E-22
(PID.TID 0000.0001) %MON obc_S_vVel_sd                =   2.1551404281332E-05
(PID.TID 0000.0001) %MON obc_S_vVel_Int               =  -1.5916157281026E-12
(PID.TID 0000.0001) // =======================================================
(PID.TID 0000.0001) // End OBCS MONITOR field statistics
(PID.TID 0000.0001) // =======================================================
 EXTERNAL_FIELDS_LOAD,       920 : iP,iLd,i0,i1=   46   47   46   47 ; Wght=  0.5000000000  0.5000000000
 cg2d: Sum(rhs),rhsMax =   6.01962923951760E-13  2.12256145983287E-03
 EXTERNAL_FIELDS_LOAD,       921 : iP,iLd,i0,i1=   46   47   46   47 ; Wght=  0.4500000000  0.5500000000
 cg2d: Sum(rhs),rhsMax =   6.18172180111287E-13  2.12497614986651E-03
 EXTERNAL_FIELDS_LOAD,       922 : iP,iLd,i0,i1=   46   47   46   47 ; Wght=  0.4000000000  0.6000000000
 cg2d: Sum(rhs),rhsMax =   5.32685007215150E-13  2.12477652250711E-03
 EXTERNAL_FIELDS_LOAD,       923 : iP,iLd,i0,i1=   46   47   46   47 ; Wght=  0.3500000000  0.6500000000
 cg2d: Sum(rhs),rhsMax =   5.24580379135386E-13  2.12193659417237E-03
 EXTERNAL_FIELDS_LOAD,       924 : iP,iLd,i0,i1=   46   47   46   47 ; Wght=  0.3000000000  0.7000000000
 cg2d: Sum(rhs),rhsMax =   6.79900580280446E-13  2.11643720765728E-03
 EXTERNAL_FIELDS_LOAD,       925 : iP,iLd,i0,i1=   46   47   46   47 ; Wght=  0.2500000000  0.7500000000
 cg2d: Sum(rhs),rhsMax =   6.18172180111287E-13  2.10826642903550E-03
 EXTERNAL_FIELDS_LOAD,       926 : iP,iLd,i0,i1=   46   47   46   47 ; Wght=  0.2000000000  0.8000000000
 cg2d: Sum(rhs),rhsMax =   6.51478870850042E-13  2.09741992246257E-03
 EXTERNAL_FIELDS_LOAD,       927 : iP,iLd,i0,i1=   46   47   46   47 ; Wght=  0.1500000000  0.8500000000
 cg2d: Sum(rhs),rhsMax =   6.60360655047043E-13  2.08390129628988E-03
 EXTERNAL_FIELDS_LOAD,       928 : iP,iLd,i0,i1=   46   47   46   47 ; Wght=  0.1000000000  0.9000000000
 cg2d: Sum(rhs),rhsMax =   6.13287198802936E-13  2.06772241436117E-03
 EXTERNAL_FIELDS_LOAD,       929 : iP,iLd,i0,i1=   46   47   46   47 ; Wght=  0.0500000000  0.9500000000
 cg2d: Sum(rhs),rhsMax =   5.83089132533132E-13  2.04890366622759E-03
 EXTERNAL_FIELDS_LOAD,       930 : iP,iLd,i0,i1=   46   47   47   48 ; Wght=  1.0000000000  0.0000000000
 EXTERNAL_FIELDS_LOAD, it=       930 : Reading new data, i0,i1=   47   48 (prev=   46   47 )
(PID.TID 0000.0001)  MDS_READ_FIELD: opening global file: ../input/merid_halfgauss2p5hr_272x320.bin
(PID.TID 0000.0001)  MDS_READ_FIELD: opening global file: ../input/merid_halfgauss2p5hr_272x320.bin
 cg2d: Sum(rhs),rhsMax =   6.38600283764390E-13  2.02747419105560E-03
 EXTERNAL_FIELDS_LOAD,       931 : iP,iLd,i0,i1=   47   48   47   48 ; Wght=  0.9500000000  0.0500000000
 cg2d: Sum(rhs),rhsMax =   5.67546010188380E-13  2.00347205028340E-03
 EXTERNAL_FIELDS_LOAD,       932 : iP,iLd,i0,i1=   47   48   47   48 ; Wght=  0.9000000000  0.1000000000
 cg2d: Sum(rhs),rhsMax =   4.75619543749417E-13  1.98539396141491E-03
 EXTERNAL_FIELDS_LOAD,       933 : iP,iLd,i0,i1=   47   48   47   48 ; Wght=  0.8500000000  0.1500000000
 cg2d: Sum(rhs),rhsMax =   8.83293438391775E-13  1.96987565804126E-03
 EXTERNAL_FIELDS_LOAD,       934 : iP,iLd,i0,i1=   47   48   47   48 ; Wght=  0.8000000000  0.2000000000
 cg2d: Sum(rhs),rhsMax =   5.42232925226926E-13  1.95190896387020E-03
 EXTERNAL_FIELDS_LOAD,       935 : iP,iLd,i0,i1=   47   48   47   48 ; Wght=  0.7500000000  0.2500000000
 cg2d: Sum(rhs),rhsMax =   1.01740837976649E-12  1.93152672863144E-03
 EXTERNAL_FIELDS_LOAD,       936 : iP,iLd,i0,i1=   47   48   47   48 ; Wght=  0.7000000000  0.3000000000
 cg2d: Sum(rhs),rhsMax =   6.25277607468888E-13  1.90877022682834E-03
 EXTERNAL_FIELDS_LOAD,       937 : iP,iLd,i0,i1=   47   48   47   48 ; Wght=  0.6500000000  0.3500000000
 cg2d: Sum(rhs),rhsMax =   1.03295150211125E-12  1.88368918002853E-03
 EXTERNAL_FIELDS_LOAD,       938 : iP,iLd,i0,i1=   47   48   47   48 ; Wght=  0.6000000000  0.4000000000
 cg2d: Sum(rhs),rhsMax =   5.33795230239775E-13  1.85634171471485E-03
 EXTERNAL_FIELDS_LOAD,       939 : iP,iLd,i0,i1=   47   48   47   48 ; Wght=  0.5500000000  0.4500000000
 cg2d: Sum(rhs),rhsMax =   7.37188088351104E-13  1.82679425586848E-03
(PID.TID 0000.0001)      cg2d_init_res =   5.95371256548663E-01
(PID.TID 0000.0001)      cg2d_iters(min,last) =      -1      34
(PID.TID 0000.0001)      cg2d_last_res =   6.45130686566704E-08
(PID.TID 0000.0001) // =======================================================
(PID.TID 0000.0001) // Begin MONITOR dynamic field statistics
(PID.TID 0000.0001) // =======================================================
(PID.TID 0000.0001) %MON time_tsnumber                =                   940
(PID.TID 0000.0001) %MON time_secondsf                =   5.6400000000000E+04
(PID.TID 0000.0001) %MON dynstat_eta_max              =   5.6961937461738E-03
(PID.TID 0000.0001) %MON dynstat_eta_min              =  -1.4138491152188E-02
(PID.TID 0000.0001) %MON dynstat_eta_mean             =  -1.3793148039120E-19
(PID.TID 0000.0001) %MON dynstat_eta_sd               =   4.9411034471611E-04
(PID.TID 0000.0001) %MON dynstat_eta_del2             =   2.5430431457527E-07
(PID.TID 0000.0001) %MON dynstat_uvel_max             =   5.4944451864534E-02
(PID.TID 0000.0001) %MON dynstat_uvel_min             =  -2.4007898643885E-02
(PID.TID 0000.0001) %MON dynstat_uvel_mean            =   2.5551541619663E-05
(PID.TID 0000.0001) %MON dynstat_uvel_sd              =   1.6887978044028E-03
(PID.TID 0000.0001) %MON dynstat_uvel_del2            =   2.2765969037263E-07
(PID.TID 0000.0001) %MON dynstat_vvel_max             =   2.3616198368197E-02
(PID.TID 0000.0001) %MON dynstat_vvel_min             =  -8.1695926209046E-02
(PID.TID 0000.0001) %MON dynstat_vvel_mean            =   4.0000779168092E-05
(PID.TID 0000.0001) %MON dynstat_vvel_sd              =   3.1687610079365E-03
(PID.TID 0000.0001) %MON dynstat_vvel_del2            =   2.0041987997518E-07
(PID.TID 0000.0001) %MON dynstat_wvel_max             =   7.6623693582642E-05
(PID.TID 0000.0001) %MON dynstat_wvel_min             =  -5.5887856119160E-05
(PID.TID 0000.0001) %MON dynstat_wvel_mean            =   1.1727887615793E-07
(PID.TID 0000.0001) %MON dynstat_wvel_sd              =   1.4260843386509E-06
(PID.TID 0000.0001) %MON dynstat_wvel_del2            =   1.8151598387004E-09
(PID.TID 0000.0001) %MON dynstat_theta_max            =   1.6579966249485E+01
(PID.TID 0000.0001) %MON dynstat_theta_min            =   4.2485671957535E+00
(PID.TID 0000.0001) %MON dynstat_theta_mean           =   7.6151895369473E+00
(PID.TID 0000.0001) %MON dynstat_theta_sd             =   3.6061895530545E+00
(PID.TID 0000.0001) %MON dynstat_theta_del2           =   1.7856863139745E-07
(PID.TID 0000.0001) %MON dynstat_salt_max             =   3.4471558393398E+01
(PID.TID 0000.0001) %MON dynstat_salt_min             =   3.3629943417337E+01
(PID.TID 0000.0001) %MON dynstat_salt_mean            =   3.4187264643192E+01
(PID.TID 0000.0001) %MON dynstat_salt_sd              =   2.7103656458996E-01
(PID.TID 0000.0001) %MON dynstat_salt_del2            =   7.0335139823120E-09
(PID.TID 0000.0001) %MON trAdv_CFL_u_max              =   1.8080727307330E-03
(PID.TID 0000.0001) %MON trAdv_CFL_v_max              =   2.4015870738130E-03
(PID.TID 0000.0001) %MON trAdv_CFL_w_max              =   8.6609808753325E-04
(PID.TID 0000.0001) %MON advcfl_uvel_max              =   1.7304112390384E-03
(PID.TID 0000.0001) %MON advcfl_vvel_max              =   2.4394125472991E-03
(PID.TID 0000.0001) %MON advcfl_wvel_max              =   9.3610189154230E-04
(PID.TID 0000.0001) %MON advcfl_W_hf_max              =   1.0175020560242E-03
(PID.TID 0000.0001) %MON pe_b_mean                    =   1.2798820963293E-09
(PID.TID 0000.0001) %MON ke_max                       =   4.2418763926929E-03
(PID.TID 0000.0001) %MON ke_mean                      =   6.4396910409791E-06
(PID.TID 0000.0001) %MON ke_vol                       =   8.2760855027014E+14
(PID.TID 0000.0001) %MON vort_r_min                   =  -2.8772176063571E-05
(PID.TID 0000.0001) %MON vort_r_max                   =   2.3296642137718E-05
(PID.TID 0000.0001) %MON vort_a_mean                  =   6.9582958995909E-04
(PID.TID 0000.0001) %MON vort_a_sd                    =   1.4271162028140E-06
(PID.TID 0000.0001) %MON vort_p_mean                  =   7.0012686801198E-04
(PID.TID 0000.0001) %MON vort_p_sd                    =   9.4513266466987E-05
(PID.TID 0000.0001) %MON surfExpan_theta_mean         =   1.3789296308236E-13
(PID.TID 0000.0001) %MON surfExpan_salt_mean          =  -1.9006913578179E-21
(PID.TID 0000.0001) // =======================================================
(PID.TID 0000.0001) // End MONITOR dynamic field statistics
(PID.TID 0000.0001) // =======================================================
(PID.TID 0000.0001) // =======================================================
(PID.TID 0000.0001) // Begin OBCS MONITOR field statistics
(PID.TID 0000.0001) // =======================================================
(PID.TID 0000.0001) %MON obc_S_vVel_max               =   3.1673845846659E-04
(PID.TID 0000.0001) %MON obc_S_vVel_min               =  -6.1659063738286E-02
(PID.TID 0000.0001) %MON obc_S_vVel_mean              =  -2.2362428621331E-20
(PID.TID 0000.0001) %MON obc_S_vVel_sd                =   2.7742312409877E-03
(PID.TID 0000.0001) %MON obc_S_vVel_Int               =  -3.7971403799020E-11
(PID.TID 0000.0001) // =======================================================
(PID.TID 0000.0001) // End OBCS MONITOR field statistics
(PID.TID 0000.0001) // =======================================================
 EXTERNAL_FIELDS_LOAD,       940 : iP,iLd,i0,i1=   47   48   47   48 ; Wght=  0.5000000000  0.5000000000
 cg2d: Sum(rhs),rhsMax =   7.12763181809350E-13  1.79512135725911E-03
 EXTERNAL_FIELDS_LOAD,       941 : iP,iLd,i0,i1=   47   48   47   48 ; Wght=  0.4500000000  0.5500000000
 cg2d: Sum(rhs),rhsMax =   6.61692922676593E-13  1.76140547015613E-03
 EXTERNAL_FIELDS_LOAD,       942 : iP,iLd,i0,i1=   47   48   47   48 ; Wght=  0.4000000000  0.6000000000
 cg2d: Sum(rhs),rhsMax =   8.45989944764369E-13  1.73466534395609E-03
 EXTERNAL_FIELDS_LOAD,       943 : iP,iLd,i0,i1=   47   48   47   48 ; Wght=  0.3500000000  0.6500000000
 cg2d: Sum(rhs),rhsMax =   8.43325409505269E-13  1.71228259991552E-03
 EXTERNAL_FIELDS_LOAD,       944 : iP,iLd,i0,i1=   47   48   47   48 ; Wght=  0.3000000000  0.7000000000
 cg2d: Sum(rhs),rhsMax =   1.13464793116691E-12  1.68818492426411E-03
 EXTERNAL_FIELDS_LOAD,       945 : iP,iLd,i0,i1=   47   48   47   48 ; Wght=  0.2500000000  0.7500000000
 cg2d: Sum(rhs),rhsMax =   8.44657677134819E-13  1.66244022143454E-03
 EXTERNAL_FIELDS_LOAD,       946 : iP,iLd,i0,i1=   47   48   47   48 ; Wght=  0.2000000000  0.8000000000
 cg2d: Sum(rhs),rhsMax =   5.08038056068472E-13  1.63512104410627E-03
 EXTERNAL_FIELDS_LOAD,       947 : iP,iLd,i0,i1=   47   48   47   48 ; Wght=  0.1500000000  0.8500000000
 cg2d: Sum(rhs),rhsMax =   9.84989867447439E-13  1.60630422770032E-03
 EXTERNAL_FIELDS_LOAD,       948 : iP,iLd,i0,i1=   47   48   47   48 ; Wght=  0.1000000000  0.9000000000
 cg2d: Sum(rhs),rhsMax =   1.51878509768721E-12  1.57607050146269E-03
 EXTERNAL_FIELDS_LOAD,       949 : iP,iLd,i0,i1=   47   48   47   48 ; Wght=  0.0500000000  0.9500000000
 cg2d: Sum(rhs),rhsMax =   7.27418125734403E-13  1.54450408076120E-03
 EXTERNAL_FIELDS_LOAD,       950 : iP,iLd,i0,i1=   47   48   48   49 ; Wght=  1.0000000000  0.0000000000
 EXTERNAL_FIELDS_LOAD, it=       950 : Reading new data, i0,i1=   48   49 (prev=   47   48 )
(PID.TID 0000.0001)  MDS_READ_FIELD: opening global file: ../input/merid_halfgauss2p5hr_272x320.bin
(PID.TID 0000.0001)  MDS_READ_FIELD: opening global file: ../input/merid_halfgauss2p5hr_272x320.bin
 cg2d: Sum(rhs),rhsMax =   8.53983550541670E-13  1.51169224468042E-03
 EXTERNAL_FIELDS_LOAD,       951 : iP,iLd,i0,i1=   48   49   48   49 ; Wght=  0.9500000000  0.0500000000
 cg2d: Sum(rhs),rhsMax =   7.37632177560954E-13  1.48535054617994E-03
 EXTERNAL_FIELDS_LOAD,       952 : iP,iLd,i0,i1=   48   49   48   49 ; Wght=  0.9000000000  0.1000000000
 cg2d: Sum(rhs),rhsMax =   7.12763181809350E-13  1.46879378701572E-03
 EXTERNAL_FIELDS_LOAD,       953 : iP,iLd,i0,i1=   48   49   48   49 ; Wght=  0.8500000000  0.1500000000
 cg2d: Sum(rhs),rhsMax =   1.29629640355233E-12  1.45148974121602E-03
 EXTERNAL_FIELDS_LOAD,       954 : iP,iLd,i0,i1=   48   49   48   49 ; Wght=  0.8000000000  0.2000000000
 cg2d: Sum(rhs),rhsMax =   1.25810473150523E-12  1.43348262014723E-03
 EXTERNAL_FIELDS_LOAD,       955 : iP,iLd,i0,i1=   48   49   48   49 ; Wght=  0.7500000000  0.2500000000
 cg2d: Sum(rhs),rhsMax =   8.96616114687276E-13  1.41481476183260E-03
 EXTERNAL_FIELDS_LOAD,       956 : iP,iLd,i0,i1=   48   49   48   49 ; Wght=  0.7000000000  0.3000000000
 cg2d: Sum(rhs),rhsMax =   1.05604414102345E-12  1.39552639467847E-03
 EXTERNAL_FIELDS_LOAD,       957 : iP,iLd,i0,i1=   48   49   48   49 ; Wght=  0.6500000000  0.3500000000
 cg2d: Sum(rhs),rhsMax =   1.05782049786285E-12  1.37565543657691E-03
 EXTERNAL_FIELDS_LOAD,       958 : iP,iLd,i0,i1=   48   49   48   49 ; Wght=  0.6000000000  0.4000000000
 cg2d: Sum(rhs),rhsMax =   1.80255810278140E-12  1.35523733063372E-03
 EXTERNAL_FIELDS_LOAD,       959 : iP,iLd,i0,i1=   48   49   48   49 ; Wght=  0.5500000000  0.4500000000
 cg2d: Sum(rhs),rhsMax =   1.27720056752878E-12  1.33430491826131E-03
(PID.TID 0000.0001)      cg2d_init_res =   5.93667128003108E-01
(PID.TID 0000.0001)      cg2d_iters(min,last) =      -1      34
(PID.TID 0000.0001)      cg2d_last_res =   5.99187938377738E-08
(PID.TID 0000.0001) // =======================================================
(PID.TID 0000.0001) // Begin MONITOR dynamic field statistics
(PID.TID 0000.0001) // =======================================================
(PID.TID 0000.0001) %MON time_tsnumber                =                   960
(PID.TID 0000.0001) %MON time_secondsf                =   5.7600000000000E+04
(PID.TID 0000.0001) %MON dynstat_eta_max              =   7.3139372473068E-03
(PID.TID 0000.0001) %MON dynstat_eta_min              =  -1.1760583234509E-02
(PID.TID 0000.0001) %MON dynstat_eta_mean             =  -2.6684740123392E-19
(PID.TID 0000.0001) %MON dynstat_eta_sd               =   5.2555107780615E-04
(PID.TID 0000.0001) %MON dynstat_eta_del2             =   2.3517487310386E-07
(PID.TID 0000.0001) %MON dynstat_uvel_max             =   3.7175834993708E-02
(PID.TID 0000.0001) %MON dynstat_uvel_min             =  -4.3516890090585E-02
(PID.TID 0000.0001) %MON dynstat_uvel_mean            =   3.8476746565824E-05
(PID.TID 0000.0001) %MON dynstat_uvel_sd              =   1.2584773484637E-03
(PID.TID 0000.0001) %MON dynstat_uvel_del2            =   2.0135475232116E-07
(PID.TID 0000.0001) %MON dynstat_vvel_max             =   2.5245486079053E-02
(PID.TID 0000.0001) %MON dynstat_vvel_min             =  -8.3490167794357E-02
(PID.TID 0000.0001) %MON dynstat_vvel_mean            =  -1.2229481708568E-05
(PID.TID 0000.0001) %MON dynstat_vvel_sd              =   3.3542662058209E-03
(PID.TID 0000.0001) %MON dynstat_vvel_del2            =   2.0601946621614E-07
(PID.TID 0000.0001) %MON dynstat_wvel_max             =   7.3652866397288E-05
(PID.TID 0000.0001) %MON dynstat_wvel_min             =  -5.0536934755135E-05
(PID.TID 0000.0001) %MON dynstat_wvel_mean            =   1.6489801447635E-07
(PID.TID 0000.0001) %MON dynstat_wvel_sd              =   1.2971887296518E-06
(PID.TID 0000.0001) %MON dynstat_wvel_del2            =   1.7687566830977E-09
(PID.TID 0000.0001) %MON dynstat_theta_max            =   1.6579945547243E+01
(PID.TID 0000.0001) %MON dynstat_theta_min            =   4.2485511238366E+00
(PID.TID 0000.0001) %MON dynstat_theta_mean           =   7.6151864033426E+00
(PID.TID 0000.0001) %MON dynstat_theta_sd             =   3.6061848599294E+00
(PID.TID 0000.0001) %MON dynstat_theta_del2           =   1.7903942813555E-07
(PID.TID 0000.0001) %MON dynstat_salt_max             =   3.4471560201900E+01
(PID.TID 0000.0001) %MON dynstat_salt_min             =   3.3629945686278E+01
(PID.TID 0000.0001) %MON dynstat_salt_mean            =   3.4187264831965E+01
(PID.TID 0000.0001) %MON dynstat_salt_sd              =   2.7103634778276E-01
(PID.TID 0000.0001) %MON dynstat_salt_del2            =   7.0498993439125E-09
(PID.TID 0000.0001) %MON trAdv_CFL_u_max              =   1.2140589324814E-03
(PID.TID 0000.0001) %MON trAdv_CFL_v_max              =   2.5185263035056E-03
(PID.TID 0000.0001) %MON trAdv_CFL_w_max              =   9.0312353552680E-04
(PID.TID 0000.0001) %MON advcfl_uvel_max              =   1.3022027425304E-03
(PID.TID 0000.0001) %MON advcfl_vvel_max              =   2.4929879902764E-03
(PID.TID 0000.0001) %MON advcfl_wvel_max              =   9.7098088440002E-04
(PID.TID 0000.0001) %MON advcfl_W_hf_max              =   1.0554140047826E-03
(PID.TID 0000.0001) %MON pe_b_mean                    =   1.4479445591945E-09
(PID.TID 0000.0001) %MON ke_max                       =   4.2324468770212E-03
(PID.TID 0000.0001) %MON ke_mean                      =   6.4038783423985E-06
(PID.TID 0000.0001) %MON ke_vol                       =   8.2760855027014E+14
(PID.TID 0000.0001) %MON vort_r_min                   =  -1.5967762105898E-05
(PID.TID 0000.0001) %MON vort_r_max                   =   2.1692869193920E-05
(PID.TID 0000.0001) %MON vort_a_mean                  =   6.9582958995909E-04
(PID.TID 0000.0001) %MON vort_a_sd                    =   1.4245931990935E-06
(PID.TID 0000.0001) %MON vort_p_mean                  =   7.0012686801198E-04
(PID.TID 0000.0001) %MON vort_p_sd                    =   9.4516611937900E-05
(PID.TID 0000.0001) %MON surfExpan_theta_mean         =   1.9257348851107E-12
(PID.TID 0000.0001) %MON surfExpan_salt_mean          =   7.9585345466652E-22
(PID.TID 0000.0001) // =======================================================
(PID.TID 0000.0001) // End MONITOR dynamic field statistics
(PID.TID 0000.0001) // =======================================================
(PID.TID 0000.0001) // =======================================================
(PID.TID 0000.0001) // Begin OBCS MONITOR field statistics
(PID.TID 0000.0001) // =======================================================
(PID.TID 0000.0001) %MON obc_S_vVel_max               =   4.5309647732730E-04
(PID.TID 0000.0001) %MON obc_S_vVel_min               =  -8.2890695211733E-02
(PID.TID 0000.0001) %MON obc_S_vVel_mean              =  -6.3438326702727E-20
(PID.TID 0000.0001) %MON obc_S_vVel_sd                =   3.7307102307748E-03
(PID.TID 0000.0001) %MON obc_S_vVel_Int               =  -1.0771827874123E-10
(PID.TID 0000.0001) // =======================================================
(PID.TID 0000.0001) // End OBCS MONITOR field statistics
(PID.TID 0000.0001) // =======================================================
 EXTERNAL_FIELDS_LOAD,       960 : iP,iLd,i0,i1=   48   49   48   49 ; Wght=  0.5000000000  0.5000000000
 cg2d: Sum(rhs),rhsMax =   1.46460621408551E-12  1.32440518485051E-03
 EXTERNAL_FIELDS_LOAD,       961 : iP,iLd,i0,i1=   48   49   48   49 ; Wght=  0.4500000000  0.5500000000
 cg2d: Sum(rhs),rhsMax =   1.47615253354161E-12  1.32528840596191E-03
 EXTERNAL_FIELDS_LOAD,       962 : iP,iLd,i0,i1=   48   49   48   49 ; Wght=  0.4000000000  0.6000000000
 cg2d: Sum(rhs),rhsMax =   1.69375624636814E-12  1.32607818814831E-03
 EXTERNAL_FIELDS_LOAD,       963 : iP,iLd,i0,i1=   48   49   48   49 ; Wght=  0.3500000000  0.6500000000
 cg2d: Sum(rhs),rhsMax =   1.26965105096133E-12  1.32673264124945E-03
 EXTERNAL_FIELDS_LOAD,       964 : iP,iLd,i0,i1=   48   49   48   49 ; Wght=  0.3000000000  0.7000000000
 cg2d: Sum(rhs),rhsMax =   6.84785561588797E-13  1.32720378753948E-03
 EXTERNAL_FIELDS_LOAD,       965 : iP,iLd,i0,i1=   48   49   48   49 ; Wght=  0.2500000000  0.7500000000
 cg2d: Sum(rhs),rhsMax =   1.27320376464013E-12  1.32743790513382E-03
 EXTERNAL_FIELDS_LOAD,       966 : iP,iLd,i0,i1=   48   49   48   49 ; Wght=  0.2000000000  0.8000000000
 cg2d: Sum(rhs),rhsMax =   6.27053964308288E-13  1.32737593145682E-03
 EXTERNAL_FIELDS_LOAD,       967 : iP,iLd,i0,i1=   48   49   48   49 ; Wght=  0.1500000000  0.8500000000
 cg2d: Sum(rhs),rhsMax =   5.23803223018149E-13  1.32695392258380E-03
 EXTERNAL_FIELDS_LOAD,       968 : iP,iLd,i0,i1=   48   49   48   49 ; Wght=  0.1000000000  0.9000000000
 cg2d: Sum(rhs),rhsMax =   8.60866933294346E-13  1.32610356371430E-03
 EXTERNAL_FIELDS_LOAD,       969 : iP,iLd,i0,i1=   48   49   48   49 ; Wght=  0.0500000000  0.9500000000
 cg2d: Sum(rhs),rhsMax =   1.98729921407903E-13  1.32883359234757E-03
 EXTERNAL_FIELDS_LOAD,       970 : iP,iLd,i0,i1=   48   49   49   50 ; Wght=  1.0000000000  0.0000000000
 EXTERNAL_FIELDS_LOAD, it=       970 : Reading new data, i0,i1=   49   50 (prev=   48   49 )
(PID.TID 0000.0001)  MDS_READ_FIELD: opening global file: ../input/merid_halfgauss2p5hr_272x320.bin
(PID.TID 0000.0001)  MDS_READ_FIELD: opening global file: ../input/merid_halfgauss2p5hr_272x320.bin
 cg2d: Sum(rhs),rhsMax =   9.80993064558788E-13  1.35227604765452E-03
 EXTERNAL_FIELDS_LOAD,       971 : iP,iLd,i0,i1=   49   50   49   50 ; Wght=  0.9500000000  0.0500000000
 cg2d: Sum(rhs),rhsMax =   4.79616346638068E-13  1.37542486317683E-03
 EXTERNAL_FIELDS_LOAD,       972 : iP,iLd,i0,i1=   49   50   49   50 ; Wght=  0.9000000000  0.1000000000
 cg2d: Sum(rhs),rhsMax =   8.18123346846278E-13  1.39813646645260E-03
 EXTERNAL_FIELDS_LOAD,       973 : iP,iLd,i0,i1=   49   50   49   50 ; Wght=  0.8500000000  0.1500000000
 cg2d: Sum(rhs),rhsMax =   1.05848663167762E-12  1.42026322311916E-03
 EXTERNAL_FIELDS_LOAD,       974 : iP,iLd,i0,i1=   49   50   49   50 ; Wght=  0.8000000000  0.2000000000
 cg2d: Sum(rhs),rhsMax =   5.54223333892878E-13  1.44165435588007E-03
 EXTERNAL_FIELDS_LOAD,       975 : iP,iLd,i0,i1=   49   50   49   50 ; Wght=  0.7500000000  0.2500000000
 cg2d: Sum(rhs),rhsMax =   5.68212144003155E-13  1.46215689391114E-03
 EXTERNAL_FIELDS_LOAD,       976 : iP,iLd,i0,i1=   49   50   49   50 ; Wght=  0.7000000000  0.3000000000
 cg2d: Sum(rhs),rhsMax =   8.20232770593066E-13  1.48161664473076E-03
 EXTERNAL_FIELDS_LOAD,       977 : iP,iLd,i0,i1=   49   50   49   50 ; Wght=  0.6500000000  0.3500000000
 cg2d: Sum(rhs),rhsMax =   7.69939667577546E-13  1.49987918051915E-03
 EXTERNAL_FIELDS_LOAD,       978 : iP,iLd,i0,i1=   49   50   49   50 ; Wght=  0.6000000000  0.4000000000
 cg2d: Sum(rhs),rhsMax =   7.40296712820054E-13  1.51679083094938E-03
 EXTERNAL_FIELDS_LOAD,       979 : iP,iLd,i0,i1=   49   50   49   50 ; Wght=  0.5500000000  0.4500000000
 cg2d: Sum(rhs),rhsMax =   7.97140131680862E-13  1.53219967478665E-03
(PID.TID 0000.0001)      cg2d_init_res =   9.03791574308308E-01
(PID.TID 0000.0001)      cg2d_iters(min,last) =      -1      34
(PID.TID 0000.0001)      cg2d_last_res =   9.41362624997873E-08
(PID.TID 0000.0001) // =======================================================
(PID.TID 0000.0001) // Begin MONITOR dynamic field statistics
(PID.TID 0000.0001) // =======================================================
(PID.TID 0000.0001) %MON time_tsnumber                =                   980
(PID.TID 0000.0001) %MON time_secondsf                =   5.8800000000000E+04
(PID.TID 0000.0001) %MON dynstat_eta_max              =   8.7803261600376E-03
(PID.TID 0000.0001) %MON dynstat_eta_min              =  -7.0240498052985E-03
(PID.TID 0000.0001) %MON dynstat_eta_mean             =  -1.3931342747527E-19
(PID.TID 0000.0001) %MON dynstat_eta_sd               =   3.8548909336916E-04
(PID.TID 0000.0001) %MON dynstat_eta_del2             =   2.1836560339722E-07
(PID.TID 0000.0001) %MON dynstat_uvel_max             =   3.5892432119111E-02
(PID.TID 0000.0001) %MON dynstat_uvel_min             =  -8.5526421929066E-02
(PID.TID 0000.0001) %MON dynstat_uvel_mean            =   9.5015813704727E-06
(PID.TID 0000.0001) %MON dynstat_uvel_sd              =   3.2986963102074E-03
(PID.TID 0000.0001) %MON dynstat_uvel_del2            =   1.9841743221553E-07
(PID.TID 0000.0001) %MON dynstat_vvel_max             =   2.4615300645616E-02
(PID.TID 0000.0001) %MON dynstat_vvel_min             =  -5.0012483149581E-02
(PID.TID 0000.0001) %MON dynstat_vvel_mean            =  -4.9436644606635E-05
(PID.TID 0000.0001) %MON dynstat_vvel_sd              =   1.3658596505036E-03
(PID.TID 0000.0001) %MON dynstat_vvel_del2            =   1.9358450634172E-07
(PID.TID 0000.0001) %MON dynstat_wvel_max             =   6.8758762661559E-05
(PID.TID 0000.0001) %MON dynstat_wvel_min             =  -5.3302703147706E-05
(PID.TID 0000.0001) %MON dynstat_wvel_mean            =   1.0405673347789E-07
(PID.TID 0000.0001) %MON dynstat_wvel_sd              =   9.7605974491830E-07
(PID.TID 0000.0001) %MON dynstat_wvel_del2            =   1.6986500058583E-09
(PID.TID 0000.0001) %MON dynstat_theta_max            =   1.6579924454325E+01
(PID.TID 0000.0001) %MON dynstat_theta_min            =   4.2485412212065E+00
(PID.TID 0000.0001) %MON dynstat_theta_mean           =   7.6151834798551E+00
(PID.TID 0000.0001) %MON dynstat_theta_sd             =   3.6061804591239E+00
(PID.TID 0000.0001) %MON dynstat_theta_del2           =   1.8022047236902E-07
(PID.TID 0000.0001) %MON dynstat_salt_max             =   3.4471561316019E+01
(PID.TID 0000.0001) %MON dynstat_salt_min             =   3.3629949822339E+01
(PID.TID 0000.0001) %MON dynstat_salt_mean            =   3.4187265009922E+01
(PID.TID 0000.0001) %MON dynstat_salt_sd              =   2.7103614352267E-01
(PID.TID 0000.0001) %MON dynstat_salt_del2            =   7.1311245139543E-09
(PID.TID 0000.0001) %MON trAdv_CFL_u_max              =   2.5321672421422E-03
(PID.TID 0000.0001) %MON trAdv_CFL_v_max              =   1.5750799634362E-03
(PID.TID 0000.0001) %MON trAdv_CFL_w_max              =   8.3341803136125E-04
(PID.TID 0000.0001) %MON advcfl_uvel_max              =   2.5604143230451E-03
(PID.TID 0000.0001) %MON advcfl_vvel_max              =   1.4933557225912E-03
(PID.TID 0000.0001) %MON advcfl_wvel_max              =   8.8255351040455E-04
(PID.TID 0000.0001) %MON advcfl_W_hf_max              =   9.4874502368489E-04
(PID.TID 0000.0001) %MON pe_b_mean                    =   7.7901579142247E-10
(PID.TID 0000.0001) %MON ke_max                       =   5.8180399406399E-03
(PID.TID 0000.0001) %MON ke_mean                      =   6.3693546348499E-06
(PID.TID 0000.0001) %MON ke_vol                       =   8.2760855027014E+14
(PID.TID 0000.0001) %MON vort_r_min                   =  -2.1891130288199E-05
(PID.TID 0000.0001) %MON vort_r_max                   =   3.2567378007081E-05
(PID.TID 0000.0001) %MON vort_a_mean                  =   6.9582958995909E-04
(PID.TID 0000.0001) %MON vort_a_sd                    =   1.4278627809233E-06
(PID.TID 0000.0001) %MON vort_p_mean                  =   7.0012686801198E-04
(PID.TID 0000.0001) %MON vort_p_sd                    =   9.4519862553033E-05
(PID.TID 0000.0001) %MON surfExpan_theta_mean         =   1.6287968573387E-12
(PID.TID 0000.0001) %MON surfExpan_salt_mean          =   3.8815850017650E-21
(PID.TID 0000.0001) // =======================================================
(PID.TID 0000.0001) // End MONITOR dynamic field statistics
(PID.TID 0000.0001) // =======================================================
(PID.TID 0000.0001) // =======================================================
(PID.TID 0000.0001) // Begin OBCS MONITOR field statistics
(PID.TID 0000.0001) // =======================================================
(PID.TID 0000.0001) %MON obc_S_vVel_max               =   3.0078933586417E-04
(PID.TID 0000.0001) %MON obc_S_vVel_min               =  -5.0012483149581E-02
(PID.TID 0000.0001) %MON obc_S_vVel_mean              =   5.0114604260677E-20
(PID.TID 0000.0001) %MON obc_S_vVel_sd                =   2.2515638196110E-03
(PID.TID 0000.0001) %MON obc_S_vVel_Int               =   8.5094598034630E-11
(PID.TID 0000.0001) // =======================================================
(PID.TID 0000.0001) // End OBCS MONITOR field statistics
(PID.TID 0000.0001) // =======================================================
 EXTERNAL_FIELDS_LOAD,       980 : iP,iLd,i0,i1=   49   50   49   50 ; Wght=  0.5000000000  0.5000000000
 cg2d: Sum(rhs),rhsMax =   7.24809101626533E-13  1.54595652281465E-03
 EXTERNAL_FIELDS_LOAD,       981 : iP,iLd,i0,i1=   49   50   49   50 ; Wght=  0.4500000000  0.5500000000
 cg2d: Sum(rhs),rhsMax =   7.24365012416683E-13  1.57667097090263E-03
 EXTERNAL_FIELDS_LOAD,       982 : iP,iLd,i0,i1=   49   50   49   50 ; Wght=  0.4000000000  0.6000000000
 cg2d: Sum(rhs),rhsMax =   6.46982467600310E-13  1.61339184744281E-03
 EXTERNAL_FIELDS_LOAD,       983 : iP,iLd,i0,i1=   49   50   49   50 ; Wght=  0.3500000000  0.6500000000
 cg2d: Sum(rhs),rhsMax =   5.63771251904654E-13  1.64846127291610E-03
 EXTERNAL_FIELDS_LOAD,       984 : iP,iLd,i0,i1=   49   50   49   50 ; Wght=  0.3000000000  0.7000000000
 cg2d: Sum(rhs),rhsMax =   6.39460706608475E-13  1.68169993484322E-03
 EXTERNAL_FIELDS_LOAD,       985 : iP,iLd,i0,i1=   49   50   49   50 ; Wght=  0.2500000000  0.7500000000
 cg2d: Sum(rhs),rhsMax =   6.92473856034326E-13  1.71293281994387E-03
 EXTERNAL_FIELDS_LOAD,       986 : iP,iLd,i0,i1=   49   50   49   50 ; Wght=  0.2000000000  0.8000000000
 cg2d: Sum(rhs),rhsMax =   5.19612131100189E-13  1.74199005870531E-03
 EXTERNAL_FIELDS_LOAD,       987 : iP,iLd,i0,i1=   49   50   49   50 ; Wght=  0.1500000000  0.8500000000
 cg2d: Sum(rhs),rhsMax =   4.75675054900648E-13  1.76870773816916E-03
 EXTERNAL_FIELDS_LOAD,       988 : iP,iLd,i0,i1=   49   50   49   50 ; Wght=  0.1000000000  0.9000000000
 cg2d: Sum(rhs),rhsMax =   6.95915547410664E-13  1.79292867973047E-03
 EXTERNAL_FIELDS_LOAD,       989 : iP,iLd,i0,i1=   49   50   49   50 ; Wght=  0.0500000000  0.9500000000
 cg2d: Sum(rhs),rhsMax =   4.69679850567672E-13  1.81815894705171E-03
 EXTERNAL_FIELDS_LOAD,       990 : iP,iLd,i0,i1=   49   50   50   51 ; Wght=  1.0000000000  0.0000000000
 EXTERNAL_FIELDS_LOAD, it=       990 : Reading new data, i0,i1=   50   51 (prev=   49   50 )
(PID.TID 0000.0001)  MDS_READ_FIELD: opening global file: ../input/merid_halfgauss2p5hr_272x320.bin
(PID.TID 0000.0001)  MDS_READ_FIELD: opening global file: ../input/merid_halfgauss2p5hr_272x320.bin
 cg2d: Sum(rhs),rhsMax =   6.41126041145412E-13  1.84081057177399E-03
 EXTERNAL_FIELDS_LOAD,       991 : iP,iLd,i0,i1=   50   51   50   51 ; Wght=  0.9500000000  0.0500000000
 cg2d: Sum(rhs),rhsMax =   5.45591349876418E-13  1.86040527465218E-03
 EXTERNAL_FIELDS_LOAD,       992 : iP,iLd,i0,i1=   50   51   50   51 ; Wght=  0.9000000000  0.1000000000
 cg2d: Sum(rhs),rhsMax =   4.39537295449099E-13  1.88873695393550E-03
 EXTERNAL_FIELDS_LOAD,       993 : iP,iLd,i0,i1=   50   51   50   51 ; Wght=  0.8500000000  0.1500000000
 cg2d: Sum(rhs),rhsMax =   5.25968157916168E-13  1.93023847636743E-03
 EXTERNAL_FIELDS_LOAD,       994 : iP,iLd,i0,i1=   50   51   50   51 ; Wght=  0.8000000000  0.2000000000
 cg2d: Sum(rhs),rhsMax =   6.17617068598975E-13  1.96901455000361E-03
 EXTERNAL_FIELDS_LOAD,       995 : iP,iLd,i0,i1=   50   51   50   51 ; Wght=  0.7500000000  0.2500000000
 cg2d: Sum(rhs),rhsMax =   6.96109836439973E-13  2.00492472451955E-03
 EXTERNAL_FIELDS_LOAD,       996 : iP,iLd,i0,i1=   50   51   50   51 ; Wght=  0.7000000000  0.3000000000
 cg2d: Sum(rhs),rhsMax =   5.75817171721837E-13  2.03783403037373E-03
 EXTERNAL_FIELDS_LOAD,       997 : iP,iLd,i0,i1=   50   51   50   51 ; Wght=  0.6500000000  0.3500000000
 cg2d: Sum(rhs),rhsMax =   1.80466752652819E-13  2.06761352086204E-03
 EXTERNAL_FIELDS_LOAD,       998 : iP,iLd,i0,i1=   50   51   50   51 ; Wght=  0.6000000000  0.4000000000
 cg2d: Sum(rhs),rhsMax =   5.11202191688653E-13  2.09414080528456E-03
 EXTERNAL_FIELDS_LOAD,       999 : iP,iLd,i0,i1=   50   51   50   51 ; Wght=  0.5500000000  0.4500000000
 cg2d: Sum(rhs),rhsMax =   3.41948691584548E-13  2.11730056836985E-03
(PID.TID 0000.0001)      cg2d_init_res =   5.02996110993733E-01
(PID.TID 0000.0001)      cg2d_iters(min,last) =      -1      33
(PID.TID 0000.0001)      cg2d_last_res =   8.77148625933814E-08
(PID.TID 0000.0001) // =======================================================
(PID.TID 0000.0001) // Begin MONITOR dynamic field statistics
(PID.TID 0000.0001) // =======================================================
(PID.TID 0000.0001) %MON time_tsnumber                =                  1000
(PID.TID 0000.0001) %MON time_secondsf                =   6.0000000000000E+04
(PID.TID 0000.0001) %MON dynstat_eta_max              =   1.1837324014634E-02
(PID.TID 0000.0001) %MON dynstat_eta_min              =  -7.7381573726434E-03
(PID.TID 0000.0001) %MON dynstat_eta_mean             =  -3.0978647134616E-20
(PID.TID 0000.0001) %MON dynstat_eta_sd               =   4.8274191890552E-04
(PID.TID 0000.0001) %MON dynstat_eta_del2             =   2.1197012874209E-07
(PID.TID 0000.0001) %MON dynstat_uvel_max             =   3.6653426445982E-02
(PID.TID 0000.0001) %MON dynstat_uvel_min             =  -8.1043172865124E-02
(PID.TID 0000.0001) %MON dynstat_uvel_mean            =  -2.8409659436508E-05
(PID.TID 0000.0001) %MON dynstat_uvel_sd              =   3.1938360132131E-03
(PID.TID 0000.0001) %MON dynstat_uvel_del2            =   2.0287451830156E-07
(PID.TID 0000.0001) %MON dynstat_vvel_max             =   5.0121561706496E-02
(PID.TID 0000.0001) %MON dynstat_vvel_min             =  -1.4513404545674E-02
(PID.TID 0000.0001) %MON dynstat_vvel_mean            =  -3.1257020649122E-05
(PID.TID 0000.0001) %MON dynstat_vvel_sd              =   1.5710299900860E-03
(PID.TID 0000.0001) %MON dynstat_vvel_del2            =   1.7661846606955E-07
(PID.TID 0000.0001) %MON dynstat_wvel_max             =   6.4961635995845E-05
(PID.TID 0000.0001) %MON dynstat_wvel_min             =  -5.6771211480062E-05
(PID.TID 0000.0001) %MON dynstat_wvel_mean            =  -2.4171368443647E-08
(PID.TID 0000.0001) %MON dynstat_wvel_sd              =   1.1336124258402E-06
(PID.TID 0000.0001) %MON dynstat_wvel_del2            =   1.6433460539267E-09
(PID.TID 0000.0001) %MON dynstat_theta_max            =   1.6579902254751E+01
(PID.TID 0000.0001) %MON dynstat_theta_min            =   4.2485390634713E+00
(PID.TID 0000.0001) %MON dynstat_theta_mean           =   7.6151826850714E+00
(PID.TID 0000.0001) %MON dynstat_theta_sd             =   3.6061784192165E+00
(PID.TID 0000.0001) %MON dynstat_theta_del2           =   1.7876019417214E-07
(PID.TID 0000.0001) %MON dynstat_salt_max             =   3.4471561558830E+01
(PID.TID 0000.0001) %MON dynstat_salt_min             =   3.3629952908140E+01
(PID.TID 0000.0001) %MON dynstat_salt_mean            =   3.4187265060370E+01
(PID.TID 0000.0001) %MON dynstat_salt_sd              =   2.7103604544172E-01
(PID.TID 0000.0001) %MON dynstat_salt_del2            =   7.1142720016356E-09
(PID.TID 0000.0001) %MON trAdv_CFL_u_max              =   2.4660468551183E-03
(PID.TID 0000.0001) %MON trAdv_CFL_v_max              =   1.4136861942965E-03
(PID.TID 0000.0001) %MON trAdv_CFL_w_max              =   1.0025447985411E-03
(PID.TID 0000.0001) %MON advcfl_uvel_max              =   2.4458411510363E-03
(PID.TID 0000.0001) %MON advcfl_vvel_max              =   1.4966127711704E-03
(PID.TID 0000.0001) %MON advcfl_wvel_max              =   9.2771302312402E-04
(PID.TID 0000.0001) %MON advcfl_W_hf_max              =   1.0083837207870E-03
(PID.TID 0000.0001) %MON pe_b_mean                    =   1.2216648994836E-09
(PID.TID 0000.0001) %MON ke_max                       =   5.5146497874599E-03
(PID.TID 0000.0001) %MON ke_mean                      =   6.3345884222525E-06
(PID.TID 0000.0001) %MON ke_vol                       =   8.2760855027014E+14
(PID.TID 0000.0001) %MON vort_r_min                   =  -2.3317820222351E-05
(PID.TID 0000.0001) %MON vort_r_max                   =   4.0662188343831E-05
(PID.TID 0000.0001) %MON vort_a_mean                  =   6.9582958995909E-04
(PID.TID 0000.0001) %MON vort_a_sd                    =   1.4294095101025E-06
(PID.TID 0000.0001) %MON vort_p_mean                  =   7.0012686801198E-04
(PID.TID 0000.0001) %MON vort_p_sd                    =   9.4520741588790E-05
(PID.TID 0000.0001) %MON surfExpan_theta_mean         =  -3.5150998268801E-13
(PID.TID 0000.0001) %MON surfExpan_salt_mean          =  -1.1300296468715E-21
(PID.TID 0000.0001) // =======================================================
(PID.TID 0000.0001) // End MONITOR dynamic field statistics
(PID.TID 0000.0001) // =======================================================
(PID.TID 0000.0001) // =======================================================
(PID.TID 0000.0001) // Begin OBCS MONITOR field statistics
(PID.TID 0000.0001) // =======================================================
(PID.TID 0000.0001) %MON obc_S_vVel_max               =   1.5530214064457E-02
(PID.TID 0000.0001) %MON obc_S_vVel_min               =  -1.0454774276172E-04
(PID.TID 0000.0001) %MON obc_S_vVel_mean              =   2.3433682687023E-22
(PID.TID 0000.0001) %MON obc_S_vVel_sd                =   6.9916209599422E-04
(PID.TID 0000.0001) %MON obc_S_vVel_Int               =   3.9790393202566E-13
(PID.TID 0000.0001) // =======================================================
(PID.TID 0000.0001) // End OBCS MONITOR field statistics
(PID.TID 0000.0001) // =======================================================
 EXTERNAL_FIELDS_LOAD,      1000 : iP,iLd,i0,i1=   50   51   50   51 ; Wght=  0.5000000000  0.5000000000
 cg2d: Sum(rhs),rhsMax =   7.42184091961917E-13  2.13698507543526E-03
 EXTERNAL_FIELDS_LOAD,      1001 : iP,iLd,i0,i1=   50   51   50   51 ; Wght=  0.4500000000  0.5500000000
 cg2d: Sum(rhs),rhsMax =   3.96460642093643E-13  2.15309465808626E-03
 EXTERNAL_FIELDS_LOAD,      1002 : iP,iLd,i0,i1=   50   51   50   51 ; Wght=  0.4000000000  0.6000000000
 cg2d: Sum(rhs),rhsMax =   2.82107670557252E-13  2.16553817852270E-03
 EXTERNAL_FIELDS_LOAD,      1003 : iP,iLd,i0,i1=   50   51   50   51 ; Wght=  0.3500000000  0.6500000000
 cg2d: Sum(rhs),rhsMax =   5.06927833043846E-13  2.17423346984563E-03
 EXTERNAL_FIELDS_LOAD,      1004 : iP,iLd,i0,i1=   50   51   50   51 ; Wght=  0.3000000000  0.7000000000
 cg2d: Sum(rhs),rhsMax =   1.29674049276218E-13  2.17910774985586E-03
 EXTERNAL_FIELDS_LOAD,      1005 : iP,iLd,i0,i1=   50   51   50   51 ; Wght=  0.2500000000  0.7500000000
 cg2d: Sum(rhs),rhsMax =   8.59867732572184E-13  2.18009800608627E-03
 EXTERNAL_FIELDS_LOAD,      1006 : iP,iLd,i0,i1=   50   51   50   51 ; Wght=  0.2000000000  0.8000000000
 cg2d: Sum(rhs),rhsMax =   5.21027665456586E-13  2.17802442198558E-03
 EXTERNAL_FIELDS_LOAD,      1007 : iP,iLd,i0,i1=   50   51   50   51 ; Wght=  0.1500000000  0.8500000000
 cg2d: Sum(rhs),rhsMax =   6.23723295234413E-13  2.17184904677500E-03
 EXTERNAL_FIELDS_LOAD,      1008 : iP,iLd,i0,i1=   50   51   50   51 ; Wght=  0.1000000000  0.9000000000
 cg2d: Sum(rhs),rhsMax =   8.81517081552374E-14  2.18805348737342E-03
 EXTERNAL_FIELDS_LOAD,      1009 : iP,iLd,i0,i1=   50   51   50   51 ; Wght=  0.0500000000  0.9500000000
 cg2d: Sum(rhs),rhsMax =   5.41566791412151E-13  2.20365088738298E-03
 EXTERNAL_FIELDS_LOAD,      1010 : iP,iLd,i0,i1=   50   51   51   52 ; Wght=  1.0000000000  0.0000000000
 EXTERNAL_FIELDS_LOAD, it=      1010 : Reading new data, i0,i1=   51   52 (prev=   50   51 )
(PID.TID 0000.0001)  MDS_READ_FIELD: opening global file: ../input/merid_halfgauss2p5hr_272x320.bin
(PID.TID 0000.0001)  MDS_READ_FIELD: opening global file: ../input/merid_halfgauss2p5hr_272x320.bin
 cg2d: Sum(rhs),rhsMax =   2.22710738739806E-13  2.21541492562026E-03
 EXTERNAL_FIELDS_LOAD,      1011 : iP,iLd,i0,i1=   51   52   51   52 ; Wght=  0.9500000000  0.0500000000
 cg2d: Sum(rhs),rhsMax =   3.93018950717305E-14  2.22327621154920E-03
 EXTERNAL_FIELDS_LOAD,      1012 : iP,iLd,i0,i1=   51   52   51   52 ; Wght=  0.9000000000  0.1000000000
 cg2d: Sum(rhs),rhsMax =   2.22932783344731E-13  2.22717572690889E-03
 EXTERNAL_FIELDS_LOAD,      1013 : iP,iLd,i0,i1=   51   52   51   52 ; Wght=  0.8500000000  0.1500000000
 cg2d: Sum(rhs),rhsMax =   5.50892664819003E-13  2.22706511449999E-03
 EXTERNAL_FIELDS_LOAD,      1014 : iP,iLd,i0,i1=   51   52   51   52 ; Wght=  0.8000000000  0.2000000000
 cg2d: Sum(rhs),rhsMax =   6.06181771445335E-13  2.22290693107272E-03
 EXTERNAL_FIELDS_LOAD,      1015 : iP,iLd,i0,i1=   51   52   51   52 ; Wght=  0.7500000000  0.2500000000
 cg2d: Sum(rhs),rhsMax =   6.35047570085590E-13  2.21467486458651E-03
 EXTERNAL_FIELDS_LOAD,      1016 : iP,iLd,i0,i1=   51   52   51   52 ; Wght=  0.7000000000  0.3000000000
 cg2d: Sum(rhs),rhsMax =   7.42295114264380E-13  2.20385092340402E-03
 EXTERNAL_FIELDS_LOAD,      1017 : iP,iLd,i0,i1=   51   52   51   52 ; Wght=  0.6500000000  0.3500000000
 cg2d: Sum(rhs),rhsMax =   3.74145159298678E-13  2.18918514763423E-03
 EXTERNAL_FIELDS_LOAD,      1018 : iP,iLd,i0,i1=   51   52   51   52 ; Wght=  0.6000000000  0.4000000000
 cg2d: Sum(rhs),rhsMax =   3.40838468559923E-13  2.17110429239396E-03
 EXTERNAL_FIELDS_LOAD,      1019 : iP,iLd,i0,i1=   51   52   51   52 ; Wght=  0.5500000000  0.4500000000
 cg2d: Sum(rhs),rhsMax =   6.72795152922845E-13  2.14889476864102E-03
(PID.TID 0000.0001)      cg2d_init_res =   4.06793850204788E-01
(PID.TID 0000.0001)      cg2d_iters(min,last) =      -1      33
(PID.TID 0000.0001)      cg2d_last_res =   7.75751112050401E-08
(PID.TID 0000.0001) // =======================================================
(PID.TID 0000.0001) // Begin MONITOR dynamic field statistics
(PID.TID 0000.0001) // =======================================================
(PID.TID 0000.0001) %MON time_tsnumber                =                  1020
(PID.TID 0000.0001) %MON time_secondsf                =   6.1200000000000E+04
(PID.TID 0000.0001) %MON dynstat_eta_max              =   1.0653590561189E-02
(PID.TID 0000.0001) %MON dynstat_eta_min              =  -7.9168450692834E-03
(PID.TID 0000.0001) %MON dynstat_eta_mean             =  -1.4569670686360E-19
(PID.TID 0000.0001) %MON dynstat_eta_sd               =   4.9520430326857E-04
(PID.TID 0000.0001) %MON dynstat_eta_del2             =   1.9821686552711E-07
(PID.TID 0000.0001) %MON dynstat_uvel_max             =   3.4914026083406E-02
(PID.TID 0000.0001) %MON dynstat_uvel_min             =  -4.1727497429379E-02
(PID.TID 0000.0001) %MON dynstat_uvel_mean            =  -3.3524935425128E-05
(PID.TID 0000.0001) %MON dynstat_uvel_sd              =   1.0359960604865E-03
(PID.TID 0000.0001) %MON dynstat_uvel_del2            =   1.9066360541891E-07
(PID.TID 0000.0001) %MON dynstat_vvel_max             =   8.6541184045053E-02
(PID.TID 0000.0001) %MON dynstat_vvel_min             =  -1.7837746784115E-02
(PID.TID 0000.0001) %MON dynstat_vvel_mean            =   2.0605921857937E-05
(PID.TID 0000.0001) %MON dynstat_vvel_sd              =   3.3984484111911E-03
(PID.TID 0000.0001) %MON dynstat_vvel_del2            =   1.8125542079750E-07
(PID.TID 0000.0001) %MON dynstat_wvel_max             =   6.1952154516538E-05
(PID.TID 0000.0001) %MON dynstat_wvel_min             =  -6.4092171393932E-05
(PID.TID 0000.0001) %MON dynstat_wvel_mean            =  -1.3506153385015E-07
(PID.TID 0000.0001) %MON dynstat_wvel_sd              =   1.3194924698690E-06
(PID.TID 0000.0001) %MON dynstat_wvel_del2            =   1.6252071331367E-09
(PID.TID 0000.0001) %MON dynstat_theta_max            =   1.6579879026811E+01
(PID.TID 0000.0001) %MON dynstat_theta_min            =   4.2485388010643E+00
(PID.TID 0000.0001) %MON dynstat_theta_mean           =   7.6151845081643E+00
(PID.TID 0000.0001) %MON dynstat_theta_sd             =   3.6061792259774E+00
(PID.TID 0000.0001) %MON dynstat_theta_del2           =   1.7454732554393E-07
(PID.TID 0000.0001) %MON dynstat_salt_max             =   3.4471561588464E+01
(PID.TID 0000.0001) %MON dynstat_salt_min             =   3.3629954198747E+01
(PID.TID 0000.0001) %MON dynstat_salt_mean            =   3.4187264952365E+01
(PID.TID 0000.0001) %MON dynstat_salt_sd              =   2.7103607573349E-01
(PID.TID 0000.0001) %MON dynstat_salt_del2            =   6.9710903312692E-09
(PID.TID 0000.0001) %MON trAdv_CFL_u_max              =   1.4334618210885E-03
(PID.TID 0000.0001) %MON trAdv_CFL_v_max              =   2.5559367055289E-03
(PID.TID 0000.0001) %MON trAdv_CFL_w_max              =   9.7416590188076E-04
(PID.TID 0000.0001) %MON advcfl_uvel_max              =   1.3451579427590E-03
(PID.TID 0000.0001) %MON advcfl_vvel_max              =   2.5840902969559E-03
(PID.TID 0000.0001) %MON advcfl_wvel_max              =   8.8769578455816E-04
(PID.TID 0000.0001) %MON advcfl_W_hf_max              =   9.6488672234583E-04
(PID.TID 0000.0001) %MON pe_b_mean                    =   1.2855556788829E-09
(PID.TID 0000.0001) %MON ke_max                       =   3.9116753799916E-03
(PID.TID 0000.0001) %MON ke_mean                      =   6.3017827061538E-06
(PID.TID 0000.0001) %MON ke_vol                       =   8.2760855027014E+14
(PID.TID 0000.0001) %MON vort_r_min                   =  -1.9669164670162E-05
(PID.TID 0000.0001) %MON vort_r_max                   =   2.2367977136708E-05
(PID.TID 0000.0001) %MON vort_a_mean                  =   6.9582958995909E-04
(PID.TID 0000.0001) %MON vort_a_sd                    =   1.4255554679062E-06
(PID.TID 0000.0001) %MON vort_p_mean                  =   7.0012686801198E-04
(PID.TID 0000.0001) %MON vort_p_sd                    =   9.4518778270180E-05
(PID.TID 0000.0001) %MON surfExpan_theta_mean         =  -6.7594628676464E-13
(PID.TID 0000.0001) %MON surfExpan_salt_mean          =   4.4090692682300E-21
(PID.TID 0000.0001) // =======================================================
(PID.TID 0000.0001) // End MONITOR dynamic field statistics
(PID.TID 0000.0001) // =======================================================
(PID.TID 0000.0001) // =======================================================
(PID.TID 0000.0001) // Begin OBCS MONITOR field statistics
(PID.TID 0000.0001) // =======================================================
(PID.TID 0000.0001) %MON obc_S_vVel_max               =   7.0355513545583E-02
(PID.TID 0000.0001) %MON obc_S_vVel_min               =  -3.7790466341184E-04
(PID.TID 0000.0001) %MON obc_S_vVel_mean              =  -5.1637793635334E-20
(PID.TID 0000.0001) %MON obc_S_vVel_sd                =   3.1680347506127E-03
(PID.TID 0000.0001) %MON obc_S_vVel_Int               =  -8.7680973592796E-11
(PID.TID 0000.0001) // =======================================================
(PID.TID 0000.0001) // End OBCS MONITOR field statistics
(PID.TID 0000.0001) // =======================================================
 EXTERNAL_FIELDS_LOAD,      1020 : iP,iLd,i0,i1=   51   52   51   52 ; Wght=  0.5000000000  0.5000000000
 cg2d: Sum(rhs),rhsMax =   5.17363929475323E-13  2.12259208535513E-03
 EXTERNAL_FIELDS_LOAD,      1021 : iP,iLd,i0,i1=   51   52   51   52 ; Wght=  0.4500000000  0.5500000000
 cg2d: Sum(rhs),rhsMax =   5.53335155473178E-13  2.10435551639077E-03
 EXTERNAL_FIELDS_LOAD,      1022 : iP,iLd,i0,i1=   51   52   51   52 ; Wght=  0.4000000000  0.6000000000
 cg2d: Sum(rhs),rhsMax =   4.11670697531008E-13  2.09547453315864E-03
 EXTERNAL_FIELDS_LOAD,      1023 : iP,iLd,i0,i1=   51   52   51   52 ; Wght=  0.3500000000  0.6500000000
 cg2d: Sum(rhs),rhsMax =   4.94715379772970E-13  2.08548001772298E-03
 EXTERNAL_FIELDS_LOAD,      1024 : iP,iLd,i0,i1=   51   52   51   52 ; Wght=  0.3000000000  0.7000000000
 cg2d: Sum(rhs),rhsMax =   7.68274333040608E-13  2.07214765171489E-03
 EXTERNAL_FIELDS_LOAD,      1025 : iP,iLd,i0,i1=   51   52   51   52 ; Wght=  0.2500000000  0.7500000000
 cg2d: Sum(rhs),rhsMax =   4.43645120640213E-13  2.05549960534245E-03
 EXTERNAL_FIELDS_LOAD,      1026 : iP,iLd,i0,i1=   51   52   51   52 ; Wght=  0.2000000000  0.8000000000
 cg2d: Sum(rhs),rhsMax =   4.78728168218368E-13  2.03534183334274E-03
 EXTERNAL_FIELDS_LOAD,      1027 : iP,iLd,i0,i1=   51   52   51   52 ; Wght=  0.1500000000  0.8500000000
 cg2d: Sum(rhs),rhsMax =   1.73194791841524E-13  2.01227932775888E-03
 EXTERNAL_FIELDS_LOAD,      1028 : iP,iLd,i0,i1=   51   52   51   52 ; Wght=  0.1000000000  0.9000000000
 cg2d: Sum(rhs),rhsMax =   2.77555756156289E-13  1.98669102979600E-03
 EXTERNAL_FIELDS_LOAD,      1029 : iP,iLd,i0,i1=   51   52   51   52 ; Wght=  0.0500000000  0.9500000000
 cg2d: Sum(rhs),rhsMax =   5.26689802882174E-13  1.95785626669424E-03
 EXTERNAL_FIELDS_LOAD,      1030 : iP,iLd,i0,i1=   51   52   52   53 ; Wght=  1.0000000000  0.0000000000
 EXTERNAL_FIELDS_LOAD, it=      1030 : Reading new data, i0,i1=   52   53 (prev=   51   52 )
(PID.TID 0000.0001)  MDS_READ_FIELD: opening global file: ../input/merid_halfgauss2p5hr_272x320.bin
(PID.TID 0000.0001)  MDS_READ_FIELD: opening global file: ../input/merid_halfgauss2p5hr_272x320.bin
 cg2d: Sum(rhs),rhsMax =   2.18491891246231E-13  1.92944704876076E-03
 EXTERNAL_FIELDS_LOAD,      1031 : iP,iLd,i0,i1=   52   53   52   53 ; Wght=  0.9500000000  0.0500000000
 cg2d: Sum(rhs),rhsMax =   6.50146603220492E-13  1.90261814912003E-03
 EXTERNAL_FIELDS_LOAD,      1032 : iP,iLd,i0,i1=   52   53   52   53 ; Wght=  0.9000000000  0.1000000000
 cg2d: Sum(rhs),rhsMax =   6.42152997443191E-13  1.87306767230324E-03
 EXTERNAL_FIELDS_LOAD,      1033 : iP,iLd,i0,i1=   52   53   52   53 ; Wght=  0.8500000000  0.1500000000
 cg2d: Sum(rhs),rhsMax =   4.39648317751562E-13  1.84089035422197E-03
 EXTERNAL_FIELDS_LOAD,      1034 : iP,iLd,i0,i1=   52   53   52   53 ; Wght=  0.8000000000  0.2000000000
 cg2d: Sum(rhs),rhsMax =   4.31654711974261E-13  1.80618584113338E-03
 EXTERNAL_FIELDS_LOAD,      1035 : iP,iLd,i0,i1=   52   53   52   53 ; Wght=  0.7500000000  0.2500000000
 cg2d: Sum(rhs),rhsMax =   3.18856052672345E-13  1.76905821135111E-03
 EXTERNAL_FIELDS_LOAD,      1036 : iP,iLd,i0,i1=   52   53   52   53 ; Wght=  0.7000000000  0.3000000000
 cg2d: Sum(rhs),rhsMax =   4.26769730665910E-13  1.72961550614661E-03
 EXTERNAL_FIELDS_LOAD,      1037 : iP,iLd,i0,i1=   52   53   52   53 ; Wght=  0.6500000000  0.3500000000
 cg2d: Sum(rhs),rhsMax =   4.10782519111308E-13  1.68796927293763E-03
 EXTERNAL_FIELDS_LOAD,      1038 : iP,iLd,i0,i1=   52   53   52   53 ; Wght=  0.6000000000  0.4000000000
 cg2d: Sum(rhs),rhsMax =   3.14415160573844E-13  1.64423412341855E-03
 EXTERNAL_FIELDS_LOAD,      1039 : iP,iLd,i0,i1=   52   53   52   53 ; Wght=  0.5500000000  0.4500000000
 cg2d: Sum(rhs),rhsMax =   4.86721773995669E-13  1.60502320720746E-03
(PID.TID 0000.0001)      cg2d_init_res =   8.96346824316211E-01
(PID.TID 0000.0001)      cg2d_iters(min,last) =      -1      34
(PID.TID 0000.0001)      cg2d_last_res =   9.31433824918257E-08
(PID.TID 0000.0001) // =======================================================
(PID.TID 0000.0001) // Begin MONITOR dynamic field statistics
(PID.TID 0000.0001) // =======================================================
(PID.TID 0000.0001) %MON time_tsnumber                =                  1040
(PID.TID 0000.0001) %MON time_secondsf                =   6.2400000000000E+04
(PID.TID 0000.0001) %MON dynstat_eta_max              =   8.8069379513473E-03
(PID.TID 0000.0001) %MON dynstat_eta_min              =  -7.0564382389029E-03
(PID.TID 0000.0001) %MON dynstat_eta_mean             =  -7.6730966668003E-20
(PID.TID 0000.0001) %MON dynstat_eta_sd               =   3.6161546672719E-04
(PID.TID 0000.0001) %MON dynstat_eta_del2             =   1.9332094242310E-07
(PID.TID 0000.0001) %MON dynstat_uvel_max             =   5.6552161757826E-02
(PID.TID 0000.0001) %MON dynstat_uvel_min             =  -1.5457371209074E-02
(PID.TID 0000.0001) %MON dynstat_uvel_mean            =  -1.4112089636341E-06
(PID.TID 0000.0001) %MON dynstat_uvel_sd              =   1.8696528752650E-03
(PID.TID 0000.0001) %MON dynstat_uvel_del2            =   1.8005320404234E-07
(PID.TID 0000.0001) %MON dynstat_vvel_max             =   7.9250307029215E-02
(PID.TID 0000.0001) %MON dynstat_vvel_min             =  -1.7119399473924E-02
(PID.TID 0000.0001) %MON dynstat_vvel_mean            =   4.8237716792578E-05
(PID.TID 0000.0001) %MON dynstat_vvel_sd              =   3.0116569777189E-03
(PID.TID 0000.0001) %MON dynstat_vvel_del2            =   1.8498570159051E-07
(PID.TID 0000.0001) %MON dynstat_wvel_max             =   5.9269265544449E-05
(PID.TID 0000.0001) %MON dynstat_wvel_min             =  -6.5157856918423E-05
(PID.TID 0000.0001) %MON dynstat_wvel_mean            =  -1.5796248198655E-07
(PID.TID 0000.0001) %MON dynstat_wvel_sd              =   1.1300535649337E-06
(PID.TID 0000.0001) %MON dynstat_wvel_del2            =   1.5937516590667E-09
(PID.TID 0000.0001) %MON dynstat_theta_max            =   1.6579855650823E+01
(PID.TID 0000.0001) %MON dynstat_theta_min            =   4.2485422644053E+00
(PID.TID 0000.0001) %MON dynstat_theta_mean           =   7.6151877472108E+00
(PID.TID 0000.0001) %MON dynstat_theta_sd             =   3.6061815235561E+00
(PID.TID 0000.0001) %MON dynstat_theta_del2           =   1.7181577880362E-07
(PID.TID 0000.0001) %MON dynstat_salt_max             =   3.4471561198725E+01
(PID.TID 0000.0001) %MON dynstat_salt_min             =   3.3629955019884E+01
(PID.TID 0000.0001) %MON dynstat_salt_mean            =   3.4187264757211E+01
(PID.TID 0000.0001) %MON dynstat_salt_sd              =   2.7103617373939E-01
(PID.TID 0000.0001) %MON dynstat_salt_del2            =   6.8902218150757E-09
(PID.TID 0000.0001) %MON trAdv_CFL_u_max              =   1.6089314480898E-03
(PID.TID 0000.0001) %MON trAdv_CFL_v_max              =   2.3919758139505E-03
(PID.TID 0000.0001) %MON trAdv_CFL_w_max              =   9.1100401795168E-04
(PID.TID 0000.0001) %MON advcfl_uvel_max              =   1.6894270235602E-03
(PID.TID 0000.0001) %MON advcfl_vvel_max              =   2.3663871910784E-03
(PID.TID 0000.0001) %MON advcfl_wvel_max              =   8.3168297789642E-04
(PID.TID 0000.0001) %MON advcfl_W_hf_max              =   9.0400323684394E-04
(PID.TID 0000.0001) %MON pe_b_mean                    =   6.8551358568857E-10
(PID.TID 0000.0001) %MON ke_max                       =   4.4533633797089E-03
(PID.TID 0000.0001) %MON ke_mean                      =   6.2708159829098E-06
(PID.TID 0000.0001) %MON ke_vol                       =   8.2760855027014E+14
(PID.TID 0000.0001) %MON vort_r_min                   =  -1.5589514791691E-05
(PID.TID 0000.0001) %MON vort_r_max                   =   2.0253978269929E-05
(PID.TID 0000.0001) %MON vort_a_mean                  =   6.9582958995909E-04
(PID.TID 0000.0001) %MON vort_a_sd                    =   1.4245746016874E-06
(PID.TID 0000.0001) %MON vort_p_mean                  =   7.0012686801198E-04
(PID.TID 0000.0001) %MON vort_p_sd                    =   9.4515649400052E-05
(PID.TID 0000.0001) %MON surfExpan_theta_mean         =   1.7028571626312E-13
(PID.TID 0000.0001) %MON surfExpan_salt_mean          =  -3.7108980851311E-21
(PID.TID 0000.0001) // =======================================================
(PID.TID 0000.0001) // End MONITOR dynamic field statistics
(PID.TID 0000.0001) // =======================================================
(PID.TID 0000.0001) // =======================================================
(PID.TID 0000.0001) // Begin OBCS MONITOR field statistics
(PID.TID 0000.0001) // =======================================================
(PID.TID 0000.0001) %MON obc_S_vVel_max               =   7.9250307029215E-02
(PID.TID 0000.0001) %MON obc_S_vVel_min               =  -4.5326364052595E-04
(PID.TID 0000.0001) %MON obc_S_vVel_mean              =   1.7210366099141E-19
(PID.TID 0000.0001) %MON obc_S_vVel_sd                =   3.5696054048912E-03
(PID.TID 0000.0001) %MON obc_S_vVel_Int               =   2.9223201636341E-10
(PID.TID 0000.0001) // =======================================================
(PID.TID 0000.0001) // End OBCS MONITOR field statistics
(PID.TID 0000.0001) // =======================================================
 EXTERNAL_FIELDS_LOAD,      1040 : iP,iLd,i0,i1=   52   53   52   53 ; Wght=  0.5000000000  0.5000000000
 cg2d: Sum(rhs),rhsMax =   4.43201031430362E-13  1.59052308629942E-03
 EXTERNAL_FIELDS_LOAD,      1041 : iP,iLd,i0,i1=   52   53   52   53 ; Wght=  0.4500000000  0.5500000000
 cg2d: Sum(rhs),rhsMax =   3.83693077310454E-13  1.57458868633769E-03
 EXTERNAL_FIELDS_LOAD,      1042 : iP,iLd,i0,i1=   52   53   52   53 ; Wght=  0.4000000000  0.6000000000
 cg2d: Sum(rhs),rhsMax =   5.02708985550271E-13  1.55726028177141E-03
 EXTERNAL_FIELDS_LOAD,      1043 : iP,iLd,i0,i1=   52   53   52   53 ; Wght=  0.3500000000  0.6500000000
 cg2d: Sum(rhs),rhsMax =   6.19060358530987E-13  1.53857734487342E-03
 EXTERNAL_FIELDS_LOAD,      1044 : iP,iLd,i0,i1=   52   53   52   53 ; Wght=  0.3000000000  0.7000000000
 cg2d: Sum(rhs),rhsMax =   4.02344824124157E-13  1.51857847341622E-03
 EXTERNAL_FIELDS_LOAD,      1045 : iP,iLd,i0,i1=   52   53   52   53 ; Wght=  0.2500000000  0.7500000000
 cg2d: Sum(rhs),rhsMax =   3.89910326248355E-13  1.49730135029742E-03
 EXTERNAL_FIELDS_LOAD,      1046 : iP,iLd,i0,i1=   52   53   52   53 ; Wght=  0.2000000000  0.8000000000
 cg2d: Sum(rhs),rhsMax =   7.82485187755810E-13  1.47478273476923E-03
 EXTERNAL_FIELDS_LOAD,      1047 : iP,iLd,i0,i1=   52   53   52   53 ; Wght=  0.1500000000  0.8500000000
 cg2d: Sum(rhs),rhsMax =   7.67386154620908E-13  1.45105848464466E-03
 EXTERNAL_FIELDS_LOAD,      1048 : iP,iLd,i0,i1=   52   53   52   53 ; Wght=  0.1000000000  0.9000000000
 cg2d: Sum(rhs),rhsMax =   4.92050844513869E-13  1.42616360857019E-03
 EXTERNAL_FIELDS_LOAD,      1049 : iP,iLd,i0,i1=   52   53   52   53 ; Wght=  0.0500000000  0.9500000000
 cg2d: Sum(rhs),rhsMax =   7.98472399310413E-13  1.40013234716458E-03
 EXTERNAL_FIELDS_LOAD,      1050 : iP,iLd,i0,i1=   52   53   53   54 ; Wght=  1.0000000000  0.0000000000
 EXTERNAL_FIELDS_LOAD, it=      1050 : Reading new data, i0,i1=   53   54 (prev=   52   53 )
(PID.TID 0000.0001)  MDS_READ_FIELD: opening global file: ../input/merid_halfgauss2p5hr_272x320.bin
(PID.TID 0000.0001)  MDS_READ_FIELD: opening global file: ../input/merid_halfgauss2p5hr_272x320.bin
 cg2d: Sum(rhs),rhsMax =   8.26005930321116E-13  1.37299828152220E-03
 EXTERNAL_FIELDS_LOAD,      1051 : iP,iLd,i0,i1=   53   54   53   54 ; Wght=  0.9500000000  0.0500000000
 cg2d: Sum(rhs),rhsMax =   1.19992904501487E-12  1.35084595634314E-03
 EXTERNAL_FIELDS_LOAD,      1052 : iP,iLd,i0,i1=   53   54   53   54 ; Wght=  0.9000000000  0.1000000000
 cg2d: Sum(rhs),rhsMax =   7.15871806278301E-13  1.35024472908882E-03
 EXTERNAL_FIELDS_LOAD,      1053 : iP,iLd,i0,i1=   53   54   53   54 ; Wght=  0.8500000000  0.1500000000
 cg2d: Sum(rhs),rhsMax =   4.93827201353270E-13  1.34876760721009E-03
 EXTERNAL_FIELDS_LOAD,      1054 : iP,iLd,i0,i1=   53   54   53   54 ; Wght=  0.8000000000  0.2000000000
 cg2d: Sum(rhs),rhsMax =   3.87245790989255E-13  1.34637803839332E-03
 EXTERNAL_FIELDS_LOAD,      1055 : iP,iLd,i0,i1=   53   54   53   54 ; Wght=  0.7500000000  0.2500000000
 cg2d: Sum(rhs),rhsMax =   1.10667031094636E-12  1.34303916974468E-03
 EXTERNAL_FIELDS_LOAD,      1056 : iP,iLd,i0,i1=   53   54   53   54 ; Wght=  0.7000000000  0.3000000000
 cg2d: Sum(rhs),rhsMax =   4.93827201353270E-13  1.35015274980827E-03
 EXTERNAL_FIELDS_LOAD,      1057 : iP,iLd,i0,i1=   53   54   53   54 ; Wght=  0.6500000000  0.3500000000
 cg2d: Sum(rhs),rhsMax =   1.12176934408126E-12  1.37342453901589E-03
 EXTERNAL_FIELDS_LOAD,      1058 : iP,iLd,i0,i1=   53   54   53   54 ; Wght=  0.6000000000  0.4000000000
 cg2d: Sum(rhs),rhsMax =   1.48991929904696E-12  1.39339053483240E-03
 EXTERNAL_FIELDS_LOAD,      1059 : iP,iLd,i0,i1=   53   54   53   54 ; Wght=  0.5500000000  0.4500000000
 cg2d: Sum(rhs),rhsMax =   6.23501250629488E-13  1.41005380694238E-03
(PID.TID 0000.0001)      cg2d_init_res =   6.79692251469426E-01
(PID.TID 0000.0001)      cg2d_iters(min,last) =      -1      34
(PID.TID 0000.0001)      cg2d_last_res =   6.49796669800858E-08
(PID.TID 0000.0001) // =======================================================
(PID.TID 0000.0001) // Begin MONITOR dynamic field statistics
(PID.TID 0000.0001) // =======================================================
(PID.TID 0000.0001) %MON time_tsnumber                =                  1060
(PID.TID 0000.0001) %MON time_secondsf                =   6.3600000000000E+04
(PID.TID 0000.0001) %MON dynstat_eta_max              =   8.9433205479676E-03
(PID.TID 0000.0001) %MON dynstat_eta_min              =  -5.7986647140888E-03
(PID.TID 0000.0001) %MON dynstat_eta_mean             =  -4.8697182962541E-20
(PID.TID 0000.0001) %MON dynstat_eta_sd               =   4.6068555459655E-04
(PID.TID 0000.0001) %MON dynstat_eta_del2             =   2.0059077727880E-07
(PID.TID 0000.0001) %MON dynstat_uvel_max             =   8.8636686746032E-02
(PID.TID 0000.0001) %MON dynstat_uvel_min             =  -1.8934501986946E-02
(PID.TID 0000.0001) %MON dynstat_uvel_mean            =   3.1556143033494E-05
(PID.TID 0000.0001) %MON dynstat_uvel_sd              =   3.4593121016181E-03
(PID.TID 0000.0001) %MON dynstat_uvel_del2            =   1.8853572617398E-07
(PID.TID 0000.0001) %MON dynstat_vvel_max             =   3.6803249933405E-02
(PID.TID 0000.0001) %MON dynstat_vvel_min             =  -1.1404677213475E-02
(PID.TID 0000.0001) %MON dynstat_vvel_mean            =   2.2355278978115E-05
(PID.TID 0000.0001) %MON dynstat_vvel_sd              =   7.1771983507789E-04
(PID.TID 0000.0001) %MON dynstat_vvel_del2            =   1.6918638943794E-07
(PID.TID 0000.0001) %MON dynstat_wvel_max             =   5.6929987725103E-05
(PID.TID 0000.0001) %MON dynstat_wvel_min             =  -6.3621608002984E-05
(PID.TID 0000.0001) %MON dynstat_wvel_mean            =  -7.8187981964154E-08
(PID.TID 0000.0001) %MON dynstat_wvel_sd              =   8.8204809570434E-07
(PID.TID 0000.0001) %MON dynstat_wvel_del2            =   1.5175325567145E-09
(PID.TID 0000.0001) %MON dynstat_theta_max            =   1.6579833071975E+01
(PID.TID 0000.0001) %MON dynstat_theta_min            =   4.2485477287580E+00
(PID.TID 0000.0001) %MON dynstat_theta_mean           =   7.6151902974623E+00
(PID.TID 0000.0001) %MON dynstat_theta_sd             =   3.6061830058717E+00
(PID.TID 0000.0001) %MON dynstat_theta_del2           =   1.7150417601629E-07
(PID.TID 0000.0001) %MON dynstat_salt_max             =   3.4471560583727E+01
(PID.TID 0000.0001) %MON dynstat_salt_min             =   3.3629955925410E+01
(PID.TID 0000.0001) %MON dynstat_salt_mean            =   3.4187264601792E+01
(PID.TID 0000.0001) %MON dynstat_salt_sd              =   2.7103623556627E-01
(PID.TID 0000.0001) %MON dynstat_salt_del2            =   6.9364173813093E-09
(PID.TID 0000.0001) %MON trAdv_CFL_u_max              =   2.6346315370426E-03
(PID.TID 0000.0001) %MON trAdv_CFL_v_max              =   1.1896635342581E-03
(PID.TID 0000.0001) %MON trAdv_CFL_w_max              =   6.8347243526634E-04
(PID.TID 0000.0001) %MON advcfl_uvel_max              =   2.6479131692409E-03
(PID.TID 0000.0001) %MON advcfl_vvel_max              =   1.0989325151808E-03
(PID.TID 0000.0001) %MON advcfl_wvel_max              =   6.1224146082414E-04
(PID.TID 0000.0001) %MON advcfl_W_hf_max              =   6.6547984872189E-04
(PID.TID 0000.0001) %MON pe_b_mean                    =   1.1125800298820E-09
(PID.TID 0000.0001) %MON ke_max                       =   5.6437842828905E-03
(PID.TID 0000.0001) %MON ke_mean                      =   6.2387054226285E-06
(PID.TID 0000.0001) %MON ke_vol                       =   8.2760855027014E+14
(PID.TID 0000.0001) %MON vort_r_min                   =  -3.6297036326960E-05
(PID.TID 0000.0001) %MON vort_r_max                   =   2.1707098993154E-05
(PID.TID 0000.0001) %MON vort_a_mean                  =   6.9582958995909E-04
(PID.TID 0000.0001) %MON vort_a_sd                    =   1.4287031778506E-06
(PID.TID 0000.0001) %MON vort_p_mean                  =   7.0012686801198E-04
(PID.TID 0000.0001) %MON vort_p_sd                    =   9.4513355325990E-05
(PID.TID 0000.0001) %MON surfExpan_theta_mean         =   2.4605101848601E-13
(PID.TID 0000.0001) %MON surfExpan_salt_mean          =  -2.3752215507489E-21
(PID.TID 0000.0001) // =======================================================
(PID.TID 0000.0001) // End MONITOR dynamic field statistics
(PID.TID 0000.0001) // =======================================================
(PID.TID 0000.0001) // =======================================================
(PID.TID 0000.0001) // Begin OBCS MONITOR field statistics
(PID.TID 0000.0001) // =======================================================
(PID.TID 0000.0001) %MON obc_S_vVel_max               =   3.6803249933405E-02
(PID.TID 0000.0001) %MON obc_S_vVel_min               =  -2.4096270920635E-04
(PID.TID 0000.0001) %MON obc_S_vVel_mean              =  -5.6039978311539E-20
(PID.TID 0000.0001) %MON obc_S_vVel_sd                =   1.6581192549732E-03
(PID.TID 0000.0001) %MON obc_S_vVel_Int               =  -9.5155883172993E-11
(PID.TID 0000.0001) // =======================================================
(PID.TID 0000.0001) // End OBCS MONITOR field statistics
(PID.TID 0000.0001) // =======================================================
 EXTERNAL_FIELDS_LOAD,      1060 : iP,iLd,i0,i1=   53   54   53   54 ; Wght=  0.5000000000  0.5000000000
 cg2d: Sum(rhs),rhsMax =   3.10862446895044E-14  1.42342724882033E-03
 EXTERNAL_FIELDS_LOAD,      1061 : iP,iLd,i0,i1=   53   54   53   54 ; Wght=  0.4500000000  0.5500000000
 cg2d: Sum(rhs),rhsMax =   5.83977310952832E-13  1.43353345414911E-03
 EXTERNAL_FIELDS_LOAD,      1062 : iP,iLd,i0,i1=   53   54   53   54 ; Wght=  0.4000000000  0.6000000000
 cg2d: Sum(rhs),rhsMax =   4.73843186910017E-13  1.44040456010100E-03
 EXTERNAL_FIELDS_LOAD,      1063 : iP,iLd,i0,i1=   53   54   53   54 ; Wght=  0.3500000000  0.6500000000
 cg2d: Sum(rhs),rhsMax =   5.77315972805081E-14  1.46742728916080E-03
 EXTERNAL_FIELDS_LOAD,      1064 : iP,iLd,i0,i1=   53   54   53   54 ; Wght=  0.3000000000  0.7000000000
 cg2d: Sum(rhs),rhsMax =   2.92654789291191E-13  1.49553308096066E-03
 EXTERNAL_FIELDS_LOAD,      1065 : iP,iLd,i0,i1=   53   54   53   54 ; Wght=  0.2500000000  0.7500000000
 cg2d: Sum(rhs),rhsMax =   8.28670465580217E-13  1.51965883540273E-03
 EXTERNAL_FIELDS_LOAD,      1066 : iP,iLd,i0,i1=   53   54   53   54 ; Wght=  0.2000000000  0.8000000000
 cg2d: Sum(rhs),rhsMax =   2.16715534406831E-13  1.53979847058102E-03
 EXTERNAL_FIELDS_LOAD,      1067 : iP,iLd,i0,i1=   53   54   53   54 ; Wght=  0.1500000000  0.8500000000
 cg2d: Sum(rhs),rhsMax =   5.85753667792233E-13  1.55595864109438E-03
 EXTERNAL_FIELDS_LOAD,      1068 : iP,iLd,i0,i1=   53   54   53   54 ; Wght=  0.1000000000  0.9000000000
 cg2d: Sum(rhs),rhsMax =   3.29514193708746E-13  1.56815862321806E-03
 EXTERNAL_FIELDS_LOAD,      1069 : iP,iLd,i0,i1=   53   54   53   54 ; Wght=  0.0500000000  0.9500000000
 cg2d: Sum(rhs),rhsMax =   1.05426778418405E-12  1.57643015174759E-03
 EXTERNAL_FIELDS_LOAD,      1070 : iP,iLd,i0,i1=   53   54   54   55 ; Wght=  1.0000000000  0.0000000000
 EXTERNAL_FIELDS_LOAD, it=      1070 : Reading new data, i0,i1=   54   55 (prev=   53   54 )
(PID.TID 0000.0001)  MDS_READ_FIELD: opening global file: ../input/merid_halfgauss2p5hr_272x320.bin
(PID.TID 0000.0001)  MDS_READ_FIELD: opening global file: ../input/merid_halfgauss2p5hr_272x320.bin
 cg2d: Sum(rhs),rhsMax =   2.20712337295481E-13  1.58081720972584E-03
 EXTERNAL_FIELDS_LOAD,      1071 : iP,iLd,i0,i1=   54   55   54   55 ; Wght=  0.9500000000  0.0500000000
 cg2d: Sum(rhs),rhsMax =   3.88800103223730E-13  1.58137577259100E-03
 EXTERNAL_FIELDS_LOAD,      1072 : iP,iLd,i0,i1=   54   55   54   55 ; Wght=  0.9000000000  0.1000000000
 cg2d: Sum(rhs),rhsMax =   1.22390986234677E-12  1.57817350859338E-03
 EXTERNAL_FIELDS_LOAD,      1073 : iP,iLd,i0,i1=   54   55   54   55 ; Wght=  0.8500000000  0.1500000000
 cg2d: Sum(rhs),rhsMax =   2.21822560320106E-13  1.57128943747485E-03
 EXTERNAL_FIELDS_LOAD,      1074 : iP,iLd,i0,i1=   54   55   54   55 ; Wght=  0.8000000000  0.2000000000
 cg2d: Sum(rhs),rhsMax =   6.50812737035267E-13  1.56081354959663E-03
 EXTERNAL_FIELDS_LOAD,      1075 : iP,iLd,i0,i1=   54   55   54   55 ; Wght=  0.7500000000  0.2500000000
 cg2d: Sum(rhs),rhsMax =   4.68736160996741E-13  1.54684638779158E-03
 EXTERNAL_FIELDS_LOAD,      1076 : iP,iLd,i0,i1=   54   55   54   55 ; Wght=  0.7000000000  0.3000000000
 cg2d: Sum(rhs),rhsMax =   2.42028619368284E-14  1.52949859435365E-03
 EXTERNAL_FIELDS_LOAD,      1077 : iP,iLd,i0,i1=   54   55   54   55 ; Wght=  0.6500000000  0.3500000000
 cg2d: Sum(rhs),rhsMax =   6.88116230662672E-13  1.50889042562781E-03
 EXTERNAL_FIELDS_LOAD,      1078 : iP,iLd,i0,i1=   54   55   54   55 ; Wght=  0.6000000000  0.4000000000
 cg2d: Sum(rhs),rhsMax =   3.57047724719450E-13  1.48515123672907E-03
 EXTERNAL_FIELDS_LOAD,      1079 : iP,iLd,i0,i1=   54   55   54   55 ; Wght=  0.5500000000  0.4500000000
 cg2d: Sum(rhs),rhsMax =  -2.12718731518180E-13  1.45841893928846E-03
(PID.TID 0000.0001)      cg2d_init_res =   5.92997544222815E-01
(PID.TID 0000.0001)      cg2d_iters(min,last) =      -1      34
(PID.TID 0000.0001)      cg2d_last_res =   6.50840666618181E-08
(PID.TID 0000.0001) // =======================================================
(PID.TID 0000.0001) // Begin MONITOR dynamic field statistics
(PID.TID 0000.0001) // =======================================================
(PID.TID 0000.0001) %MON time_tsnumber                =                  1080
(PID.TID 0000.0001) %MON time_secondsf                =   6.4800000000000E+04
(PID.TID 0000.0001) %MON dynstat_eta_max              =   9.1353000612560E-03
(PID.TID 0000.0001) %MON dynstat_eta_min              =  -6.2849634840208E-03
(PID.TID 0000.0001) %MON dynstat_eta_mean             =  -7.6928387680013E-20
(PID.TID 0000.0001) %MON dynstat_eta_sd               =   4.4496123295139E-04
(PID.TID 0000.0001) %MON dynstat_eta_del2             =   2.0183517466860E-07
(PID.TID 0000.0001) %MON dynstat_uvel_max             =   7.5998409162895E-02
(PID.TID 0000.0001) %MON dynstat_uvel_min             =  -1.7963934994730E-02
(PID.TID 0000.0001) %MON dynstat_uvel_mean            =   2.9297342882390E-05
(PID.TID 0000.0001) %MON dynstat_uvel_sd              =   2.7946412458100E-03
(PID.TID 0000.0001) %MON dynstat_uvel_del2            =   1.8976957281839E-07
(PID.TID 0000.0001) %MON dynstat_vvel_max             =   1.5923029219292E-02
(PID.TID 0000.0001) %MON dynstat_vvel_min             =  -6.1332086328594E-02
(PID.TID 0000.0001) %MON dynstat_vvel_mean            =  -2.7058817331711E-05
(PID.TID 0000.0001) %MON dynstat_vvel_sd              =   2.1458472586450E-03
(PID.TID 0000.0001) %MON dynstat_vvel_del2            =   1.5565041198115E-07
(PID.TID 0000.0001) %MON dynstat_wvel_max             =   5.5112229648153E-05
(PID.TID 0000.0001) %MON dynstat_wvel_min             =  -5.5840152840768E-05
(PID.TID 0000.0001) %MON dynstat_wvel_mean            =   5.2736024962540E-08
(PID.TID 0000.0001) %MON dynstat_wvel_sd              =   1.0927508027575E-06
(PID.TID 0000.0001) %MON dynstat_wvel_del2            =   1.4653372709328E-09
(PID.TID 0000.0001) %MON dynstat_theta_max            =   1.6579819106133E+01
(PID.TID 0000.0001) %MON dynstat_theta_min            =   4.2485536943489E+00
(PID.TID 0000.0001) %MON dynstat_theta_mean           =   7.6151904933249E+00
(PID.TID 0000.0001) %MON dynstat_theta_sd             =   3.6061818809749E+00
(PID.TID 0000.0001) %MON dynstat_theta_del2           =   1.7027458698041E-07
(PID.TID 0000.0001) %MON dynstat_salt_max             =   3.4471559912304E+01
(PID.TID 0000.0001) %MON dynstat_salt_min             =   3.3629957707592E+01
(PID.TID 0000.0001) %MON dynstat_salt_mean            =   3.4187264587474E+01
(PID.TID 0000.0001) %MON dynstat_salt_sd              =   2.7103618032621E-01
(PID.TID 0000.0001) %MON dynstat_salt_del2            =   6.9676393802743E-09
(PID.TID 0000.0001) %MON trAdv_CFL_u_max              =   2.3525886393887E-03
(PID.TID 0000.0001) %MON trAdv_CFL_v_max              =   1.7617133933415E-03
(PID.TID 0000.0001) %MON trAdv_CFL_w_max              =   5.9554676448036E-04
(PID.TID 0000.0001) %MON advcfl_uvel_max              =   2.3149526218082E-03
(PID.TID 0000.0001) %MON advcfl_vvel_max              =   1.8313552203223E-03
(PID.TID 0000.0001) %MON advcfl_wvel_max              =   6.4324287690744E-04
(PID.TID 0000.0001) %MON advcfl_W_hf_max              =   6.9917704011678E-04
(PID.TID 0000.0001) %MON pe_b_mean                    =   1.0379260713821E-09
(PID.TID 0000.0001) %MON ke_max                       =   4.8281890716757E-03
(PID.TID 0000.0001) %MON ke_mean                      =   6.2061586451946E-06
(PID.TID 0000.0001) %MON ke_vol                       =   8.2760855027014E+14
(PID.TID 0000.0001) %MON vort_r_min                   =  -3.8494038158669E-05
(PID.TID 0000.0001) %MON vort_r_max                   =   2.0695140432453E-05
(PID.TID 0000.0001) %MON vort_a_mean                  =   6.9582958995909E-04
(PID.TID 0000.0001) %MON vort_a_sd                    =   1.4290561880835E-06
(PID.TID 0000.0001) %MON vort_p_mean                  =   7.0012686801198E-04
(PID.TID 0000.0001) %MON vort_p_sd                    =   9.4512985030069E-05
(PID.TID 0000.0001) %MON surfExpan_theta_mean         =   2.9899412704623E-13
(PID.TID 0000.0001) %MON surfExpan_salt_mean          =   3.3931736439270E-22
(PID.TID 0000.0001) // =======================================================
(PID.TID 0000.0001) // End MONITOR dynamic field statistics
(PID.TID 0000.0001) // =======================================================
(PID.TID 0000.0001) // =======================================================
(PID.TID 0000.0001) // Begin OBCS MONITOR field statistics
(PID.TID 0000.0001) // =======================================================
(PID.TID 0000.0001) %MON obc_S_vVel_max               =   1.6274992946834E-04
(PID.TID 0000.0001) %MON obc_S_vVel_min               =  -2.9740501813318E-02
(PID.TID 0000.0001) %MON obc_S_vVel_mean              =   1.4796696782378E-20
(PID.TID 0000.0001) %MON obc_S_vVel_sd                =   1.3408085407113E-03
(PID.TID 0000.0001) %MON obc_S_vVel_Int               =   2.5124791136477E-11
(PID.TID 0000.0001) // =======================================================
(PID.TID 0000.0001) // End OBCS MONITOR field statistics
(PID.TID 0000.0001) // =======================================================
 EXTERNAL_FIELDS_LOAD,      1080 : iP,iLd,i0,i1=   54   55   54   55 ; Wght=  0.5000000000  0.5000000000
 cg2d: Sum(rhs),rhsMax =   3.66151553521377E-13  1.43041735462346E-03
 EXTERNAL_FIELDS_LOAD,      1081 : iP,iLd,i0,i1=   54   55   54   55 ; Wght=  0.4500000000  0.5500000000
 cg2d: Sum(rhs),rhsMax =   9.88209514218852E-13  1.42268743328620E-03
 EXTERNAL_FIELDS_LOAD,      1082 : iP,iLd,i0,i1=   54   55   54   55 ; Wght=  0.4000000000  0.6000000000
 cg2d: Sum(rhs),rhsMax =   8.19344592173366E-13  1.41158359733350E-03
 EXTERNAL_FIELDS_LOAD,      1083 : iP,iLd,i0,i1=   54   55   54   55 ; Wght=  0.3500000000  0.6500000000
 cg2d: Sum(rhs),rhsMax =   8.69304628281498E-13  1.39720586920043E-03
 EXTERNAL_FIELDS_LOAD,      1084 : iP,iLd,i0,i1=   54   55   54   55 ; Wght=  0.3000000000  0.7000000000
 cg2d: Sum(rhs),rhsMax =   4.64628335805628E-13  1.37966361683397E-03
 EXTERNAL_FIELDS_LOAD,      1085 : iP,iLd,i0,i1=   54   55   54   55 ; Wght=  0.2500000000  0.7500000000
 cg2d: Sum(rhs),rhsMax =   5.16697795660548E-13  1.36757057890619E-03
 EXTERNAL_FIELDS_LOAD,      1086 : iP,iLd,i0,i1=   54   55   54   55 ; Wght=  0.2000000000  0.8000000000
 cg2d: Sum(rhs),rhsMax =   4.57189841540639E-13  1.36296397759133E-03
 EXTERNAL_FIELDS_LOAD,      1087 : iP,iLd,i0,i1=   54   55   54   55 ; Wght=  0.1500000000  0.8500000000
 cg2d: Sum(rhs),rhsMax =   6.76736444660264E-13  1.37005031068373E-03
 EXTERNAL_FIELDS_LOAD,      1088 : iP,iLd,i0,i1=   54   55   54   55 ; Wght=  0.1000000000  0.9000000000
 cg2d: Sum(rhs),rhsMax =   6.11094508329302E-13  1.37834854626066E-03
 EXTERNAL_FIELDS_LOAD,      1089 : iP,iLd,i0,i1=   54   55   54   55 ; Wght=  0.0500000000  0.9500000000
 cg2d: Sum(rhs),rhsMax =   3.40560912803767E-13  1.38491157737939E-03
 EXTERNAL_FIELDS_LOAD,      1090 : iP,iLd,i0,i1=   54   55   55   56 ; Wght=  1.0000000000  0.0000000000
 EXTERNAL_FIELDS_LOAD, it=      1090 : Reading new data, i0,i1=   55   56 (prev=   54   55 )
(PID.TID 0000.0001)  MDS_READ_FIELD: opening global file: ../input/merid_halfgauss2p5hr_272x320.bin
(PID.TID 0000.0001)  MDS_READ_FIELD: opening global file: ../input/merid_halfgauss2p5hr_272x320.bin
 cg2d: Sum(rhs),rhsMax =   6.33389174442556E-13  1.38970096503062E-03
 EXTERNAL_FIELDS_LOAD,      1091 : iP,iLd,i0,i1=   55   56   55   56 ; Wght=  0.9500000000  0.0500000000
 cg2d: Sum(rhs),rhsMax =   4.62963001268690E-13  1.39268209618635E-03
 EXTERNAL_FIELDS_LOAD,      1092 : iP,iLd,i0,i1=   55   56   55   56 ; Wght=  0.9000000000  0.1000000000
 cg2d: Sum(rhs),rhsMax =   6.96220858742436E-13  1.39382425664886E-03
 EXTERNAL_FIELDS_LOAD,      1093 : iP,iLd,i0,i1=   55   56   55   56 ; Wght=  0.8500000000  0.1500000000
 cg2d: Sum(rhs),rhsMax =   7.50899342705225E-13  1.39310069358134E-03
 EXTERNAL_FIELDS_LOAD,      1094 : iP,iLd,i0,i1=   55   56   55   56 ; Wght=  0.8000000000  0.2000000000
 cg2d: Sum(rhs),rhsMax =   8.49542658443170E-13  1.39048866826405E-03
 EXTERNAL_FIELDS_LOAD,      1095 : iP,iLd,i0,i1=   55   56   55   56 ; Wght=  0.7500000000  0.2500000000
 cg2d: Sum(rhs),rhsMax =   7.33635374672303E-13  1.38596949962738E-03
 EXTERNAL_FIELDS_LOAD,      1096 : iP,iLd,i0,i1=   55   56   55   56 ; Wght=  0.7000000000  0.3000000000
 cg2d: Sum(rhs),rhsMax =   7.66497976201208E-13  1.37952859909827E-03
 EXTERNAL_FIELDS_LOAD,      1097 : iP,iLd,i0,i1=   55   56   55   56 ; Wght=  0.6500000000  0.3500000000
 cg2d: Sum(rhs),rhsMax =   8.13293876689158E-13  1.37115549726187E-03
 EXTERNAL_FIELDS_LOAD,      1098 : iP,iLd,i0,i1=   55   56   55   56 ; Wght=  0.6000000000  0.4000000000
 cg2d: Sum(rhs),rhsMax =   7.33468841218610E-13  1.37149435221196E-03
 EXTERNAL_FIELDS_LOAD,      1099 : iP,iLd,i0,i1=   55   56   55   56 ; Wght=  0.5500000000  0.4500000000
 cg2d: Sum(rhs),rhsMax =   9.40525435311201E-13  1.37271509350539E-03
(PID.TID 0000.0001)      cg2d_init_res =   8.87694105945609E-01
(PID.TID 0000.0001)      cg2d_iters(min,last) =      -1      34
(PID.TID 0000.0001)      cg2d_last_res =   8.34815574581005E-08
(PID.TID 0000.0001) // =======================================================
(PID.TID 0000.0001) // Begin MONITOR dynamic field statistics
(PID.TID 0000.0001) // =======================================================
(PID.TID 0000.0001) %MON time_tsnumber                =                  1100
(PID.TID 0000.0001) %MON time_secondsf                =   6.6000000000000E+04
(PID.TID 0000.0001) %MON dynstat_eta_max              =   8.8365055878945E-03
(PID.TID 0000.0001) %MON dynstat_eta_min              =  -6.3746035133372E-03
(PID.TID 0000.0001) %MON dynstat_eta_mean             =  -1.5153707846891E-19
(PID.TID 0000.0001) %MON dynstat_eta_sd               =   3.7862909683498E-04
(PID.TID 0000.0001) %MON dynstat_eta_del2             =   1.8992338597113E-07
(PID.TID 0000.0001) %MON dynstat_uvel_max             =   3.0429353489939E-02
(PID.TID 0000.0001) %MON dynstat_uvel_min             =  -1.4770927631280E-02
(PID.TID 0000.0001) %MON dynstat_uvel_mean            =  -4.6021927894550E-06
(PID.TID 0000.0001) %MON dynstat_uvel_sd              =   4.4144814143203E-04
(PID.TID 0000.0001) %MON dynstat_uvel_del2            =   1.6910823415363E-07
(PID.TID 0000.0001) %MON dynstat_vvel_max             =   1.6958698472687E-02
(PID.TID 0000.0001) %MON dynstat_vvel_min             =  -8.6851449508329E-02
(PID.TID 0000.0001) %MON dynstat_vvel_mean            =  -4.5304326872313E-05
(PID.TID 0000.0001) %MON dynstat_vvel_sd              =   3.4891669901804E-03
(PID.TID 0000.0001) %MON dynstat_vvel_del2            =   1.5966653074940E-07
(PID.TID 0000.0001) %MON dynstat_wvel_max             =   5.3567602357523E-05
(PID.TID 0000.0001) %MON dynstat_wvel_min             =  -4.9389549040464E-05
(PID.TID 0000.0001) %MON dynstat_wvel_mean            =   1.4974699278967E-07
(PID.TID 0000.0001) %MON dynstat_wvel_sd              =   1.2457741638071E-06
(PID.TID 0000.0001) %MON dynstat_wvel_del2            =   1.4597456102097E-09
(PID.TID 0000.0001) %MON dynstat_theta_max            =   1.6579810693971E+01
(PID.TID 0000.0001) %MON dynstat_theta_min            =   4.2485602349068E+00
(PID.TID 0000.0001) %MON dynstat_theta_mean           =   7.6151882018972E+00
(PID.TID 0000.0001) %MON dynstat_theta_sd             =   3.6061780604539E+00
(PID.TID 0000.0001) %MON dynstat_theta_del2           =   1.6858158135332E-07
(PID.TID 0000.0001) %MON dynstat_salt_max             =   3.4471559176147E+01
(PID.TID 0000.0001) %MON dynstat_salt_min             =   3.3629958376772E+01
(PID.TID 0000.0001) %MON dynstat_salt_mean            =   3.4187264723955E+01
(PID.TID 0000.0001) %MON dynstat_salt_sd              =   2.7103600353184E-01
(PID.TID 0000.0001) %MON dynstat_salt_del2            =   6.9888788455491E-09
(PID.TID 0000.0001) %MON trAdv_CFL_u_max              =   1.0328805974297E-03
(PID.TID 0000.0001) %MON trAdv_CFL_v_max              =   2.5947361801152E-03
(PID.TID 0000.0001) %MON trAdv_CFL_w_max              =   6.6737601989700E-04
(PID.TID 0000.0001) %MON advcfl_uvel_max              =   9.3657383600769E-04
(PID.TID 0000.0001) %MON advcfl_vvel_max              =   2.5933547180749E-03
(PID.TID 0000.0001) %MON advcfl_wvel_max              =   7.2467042057529E-04
(PID.TID 0000.0001) %MON advcfl_W_hf_max              =   7.8768523975575E-04
(PID.TID 0000.0001) %MON pe_b_mean                    =   7.5153643824511E-10
(PID.TID 0000.0001) %MON ke_max                       =   3.7420493682795E-03
(PID.TID 0000.0001) %MON ke_mean                      =   6.1733356765510E-06
(PID.TID 0000.0001) %MON ke_vol                       =   8.2760855027014E+14
(PID.TID 0000.0001) %MON vort_r_min                   =  -1.5582410029533E-05
(PID.TID 0000.0001) %MON vort_r_max                   =   1.6229981644255E-05
(PID.TID 0000.0001) %MON vort_a_mean                  =   6.9582958995909E-04
(PID.TID 0000.0001) %MON vort_a_sd                    =   1.4247924694820E-06
(PID.TID 0000.0001) %MON vort_p_mean                  =   7.0012686801198E-04
(PID.TID 0000.0001) %MON vort_p_sd                    =   9.4514739560925E-05
(PID.TID 0000.0001) %MON surfExpan_theta_mean         =   4.2273562418231E-13
(PID.TID 0000.0001) %MON surfExpan_salt_mean          =   1.2169154568447E-21
(PID.TID 0000.0001) // =======================================================
(PID.TID 0000.0001) // End MONITOR dynamic field statistics
(PID.TID 0000.0001) // =======================================================
(PID.TID 0000.0001) // =======================================================
(PID.TID 0000.0001) // Begin OBCS MONITOR field statistics
(PID.TID 0000.0001) // =======================================================
(PID.TID 0000.0001) %MON obc_S_vVel_max               =   4.2696609988354E-04
(PID.TID 0000.0001) %MON obc_S_vVel_min               =  -7.6551990220295E-02
(PID.TID 0000.0001) %MON obc_S_vVel_mean              =  -1.6160871881658E-20
(PID.TID 0000.0001) %MON obc_S_vVel_sd                =   3.4516734461573E-03
(PID.TID 0000.0001) %MON obc_S_vVel_Int               =  -2.7441160455055E-11
(PID.TID 0000.0001) // =======================================================
(PID.TID 0000.0001) // End OBCS MONITOR field statistics
(PID.TID 0000.0001) // =======================================================
 EXTERNAL_FIELDS_LOAD,      1100 : iP,iLd,i0,i1=   55   56   55   56 ; Wght=  0.5000000000  0.5000000000
 cg2d: Sum(rhs),rhsMax =   7.73103803197728E-13  1.37201220776239E-03
 EXTERNAL_FIELDS_LOAD,      1101 : iP,iLd,i0,i1=   55   56   55   56 ; Wght=  0.4500000000  0.5500000000
 cg2d: Sum(rhs),rhsMax =   7.40851824332367E-13  1.36935981908302E-03
 EXTERNAL_FIELDS_LOAD,      1102 : iP,iLd,i0,i1=   55   56   55   56 ; Wght=  0.4000000000  0.6000000000
 cg2d: Sum(rhs),rhsMax =   3.50108830815543E-13  1.36473594808991E-03
 EXTERNAL_FIELDS_LOAD,      1103 : iP,iLd,i0,i1=   55   56   55   56 ; Wght=  0.3500000000  0.6500000000
 cg2d: Sum(rhs),rhsMax =   7.72937269744034E-13  1.35812261733859E-03
 EXTERNAL_FIELDS_LOAD,      1104 : iP,iLd,i0,i1=   55   56   55   56 ; Wght=  0.3000000000  0.7000000000
 cg2d: Sum(rhs),rhsMax =   6.76791955811495E-13  1.34950594994998E-03
 EXTERNAL_FIELDS_LOAD,      1105 : iP,iLd,i0,i1=   55   56   55   56 ; Wght=  0.2500000000  0.7500000000
 cg2d: Sum(rhs),rhsMax =   6.44484465794903E-13  1.33887626070088E-03
 EXTERNAL_FIELDS_LOAD,      1106 : iP,iLd,i0,i1=   55   56   55   56 ; Wght=  0.2000000000  0.8000000000
 cg2d: Sum(rhs),rhsMax =   3.89965837399586E-13  1.32622813878141E-03
 EXTERNAL_FIELDS_LOAD,      1107 : iP,iLd,i0,i1=   55   56   55   56 ; Wght=  0.1500000000  0.8500000000
 cg2d: Sum(rhs),rhsMax =   5.97022431492178E-13  1.31156052141952E-03
 EXTERNAL_FIELDS_LOAD,      1108 : iP,iLd,i0,i1=   55   56   55   56 ; Wght=  0.1000000000  0.9000000000
 cg2d: Sum(rhs),rhsMax =   4.30655511252098E-13  1.29487675758471E-03
 EXTERNAL_FIELDS_LOAD,      1109 : iP,iLd,i0,i1=   55   56   55   56 ; Wght=  0.0500000000  0.9500000000
 cg2d: Sum(rhs),rhsMax =   6.06736882957648E-13  1.28104782683164E-03
 EXTERNAL_FIELDS_LOAD,      1110 : iP,iLd,i0,i1=   55   56   56   57 ; Wght=  1.0000000000  0.0000000000
 EXTERNAL_FIELDS_LOAD, it=      1110 : Reading new data, i0,i1=   56   57 (prev=   55   56 )
(PID.TID 0000.0001)  MDS_READ_FIELD: opening global file: ../input/merid_halfgauss2p5hr_272x320.bin
(PID.TID 0000.0001)  MDS_READ_FIELD: opening global file: ../input/merid_halfgauss2p5hr_272x320.bin
 cg2d: Sum(rhs),rhsMax =   7.12707670658119E-13  1.27148732451484E-03
 EXTERNAL_FIELDS_LOAD,      1111 : iP,iLd,i0,i1=   56   57   56   57 ; Wght=  0.9500000000  0.0500000000
 cg2d: Sum(rhs),rhsMax =   7.30748794808278E-13  1.25997550846516E-03
 EXTERNAL_FIELDS_LOAD,      1112 : iP,iLd,i0,i1=   56   57   56   57 ; Wght=  0.9000000000  0.1000000000
 cg2d: Sum(rhs),rhsMax =   7.86815057551848E-13  1.24650960875617E-03
 EXTERNAL_FIELDS_LOAD,      1113 : iP,iLd,i0,i1=   56   57   56   57 ; Wght=  0.8500000000  0.1500000000
 cg2d: Sum(rhs),rhsMax =   3.25073301610246E-13  1.23109103607233E-03
 EXTERNAL_FIELDS_LOAD,      1114 : iP,iLd,i0,i1=   56   57   56   57 ; Wght=  0.8000000000  0.2000000000
 cg2d: Sum(rhs),rhsMax =   1.48020484758149E-13  1.21372545801024E-03
 EXTERNAL_FIELDS_LOAD,      1115 : iP,iLd,i0,i1=   56   57   56   57 ; Wght=  0.7500000000  0.2500000000
 cg2d: Sum(rhs),rhsMax =   9.05997499245359E-13  1.19442286472894E-03
 EXTERNAL_FIELDS_LOAD,      1116 : iP,iLd,i0,i1=   56   57   56   57 ; Wght=  0.7000000000  0.3000000000
 cg2d: Sum(rhs),rhsMax =   1.26194887872799E-12  1.17319762351951E-03
 EXTERNAL_FIELDS_LOAD,      1117 : iP,iLd,i0,i1=   56   57   56   57 ; Wght=  0.6500000000  0.3500000000
 cg2d: Sum(rhs),rhsMax =   1.19140114440697E-12  1.15006852202027E-03
 EXTERNAL_FIELDS_LOAD,      1118 : iP,iLd,i0,i1=   56   57   56   57 ; Wght=  0.6000000000  0.4000000000
 cg2d: Sum(rhs),rhsMax =   1.13974801818628E-13  1.12505879995053E-03
 EXTERNAL_FIELDS_LOAD,      1119 : iP,iLd,i0,i1=   56   57   56   57 ; Wght=  0.5500000000  0.4500000000
 cg2d: Sum(rhs),rhsMax =   5.52058398994859E-13  1.09819616936473E-03
(PID.TID 0000.0001)      cg2d_init_res =   5.58626667027059E-01
(PID.TID 0000.0001)      cg2d_iters(min,last) =      -1      34
(PID.TID 0000.0001)      cg2d_last_res =   6.13329502337988E-08
(PID.TID 0000.0001) // =======================================================
(PID.TID 0000.0001) // Begin MONITOR dynamic field statistics
(PID.TID 0000.0001) // =======================================================
(PID.TID 0000.0001) %MON time_tsnumber                =                  1120
(PID.TID 0000.0001) %MON time_secondsf                =   6.7200000000000E+04
(PID.TID 0000.0001) %MON dynstat_eta_max              =   8.0103673386837E-03
(PID.TID 0000.0001) %MON dynstat_eta_min              =  -6.1704962678951E-03
(PID.TID 0000.0001) %MON dynstat_eta_mean             =  -7.9996639241673E-22
(PID.TID 0000.0001) %MON dynstat_eta_sd               =   4.6862055212671E-04
(PID.TID 0000.0001) %MON dynstat_eta_del2             =   1.7319740616132E-07
(PID.TID 0000.0001) %MON dynstat_uvel_max             =   2.6694631501347E-02
(PID.TID 0000.0001) %MON dynstat_uvel_min             =  -6.8018971749856E-02
(PID.TID 0000.0001) %MON dynstat_uvel_mean            =  -3.2075620081677E-05
(PID.TID 0000.0001) %MON dynstat_uvel_sd              =   2.3988579012549E-03
(PID.TID 0000.0001) %MON dynstat_uvel_del2            =   1.5294851129855E-07
(PID.TID 0000.0001) %MON dynstat_vvel_max             =   1.5793533301648E-02
(PID.TID 0000.0001) %MON dynstat_vvel_min             =  -7.3194692728476E-02
(PID.TID 0000.0001) %MON dynstat_vvel_mean            =  -1.3641647317152E-05
(PID.TID 0000.0001) %MON dynstat_vvel_sd              =   2.5586949949979E-03
(PID.TID 0000.0001) %MON dynstat_vvel_del2            =   1.5821867448411E-07
(PID.TID 0000.0001) %MON dynstat_wvel_max             =   5.1378526344606E-05
(PID.TID 0000.0001) %MON dynstat_wvel_min             =  -5.0967891054693E-05
(PID.TID 0000.0001) %MON dynstat_wvel_mean            =   1.4841832053667E-07
(PID.TID 0000.0001) %MON dynstat_wvel_sd              =   1.0140287935658E-06
(PID.TID 0000.0001) %MON dynstat_wvel_del2            =   1.4158266755732E-09
(PID.TID 0000.0001) %MON dynstat_theta_max            =   1.6579802319957E+01
(PID.TID 0000.0001) %MON dynstat_theta_min            =   4.2485656907596E+00
(PID.TID 0000.0001) %MON dynstat_theta_mean           =   7.6151849172745E+00
(PID.TID 0000.0001) %MON dynstat_theta_sd             =   3.6061732183474E+00
(PID.TID 0000.0001) %MON dynstat_theta_del2           =   1.6922448916043E-07
(PID.TID 0000.0001) %MON dynstat_salt_max             =   3.4471558561669E+01
(PID.TID 0000.0001) %MON dynstat_salt_min             =   3.3629959463690E+01
(PID.TID 0000.0001) %MON dynstat_salt_mean            =   3.4187264922275E+01
(PID.TID 0000.0001) %MON dynstat_salt_sd              =   2.7103578010921E-01
(PID.TID 0000.0001) %MON dynstat_salt_del2            =   7.1112070328745E-09
(PID.TID 0000.0001) %MON trAdv_CFL_u_max              =   1.9532917615125E-03
(PID.TID 0000.0001) %MON trAdv_CFL_v_max              =   2.2292484243621E-03
(PID.TID 0000.0001) %MON trAdv_CFL_w_max              =   6.1562840678817E-04
(PID.TID 0000.0001) %MON advcfl_uvel_max              =   2.0127622082378E-03
(PID.TID 0000.0001) %MON advcfl_vvel_max              =   2.1855686093902E-03
(PID.TID 0000.0001) %MON advcfl_wvel_max              =   6.5549421465022E-04
(PID.TID 0000.0001) %MON advcfl_W_hf_max              =   7.1249371157633E-04
(PID.TID 0000.0001) %MON pe_b_mean                    =   1.1512369863385E-09
(PID.TID 0000.0001) %MON ke_max                       =   4.7354067673184E-03
(PID.TID 0000.0001) %MON ke_mean                      =   6.1400051037482E-06
(PID.TID 0000.0001) %MON ke_vol                       =   8.2760855027014E+14
(PID.TID 0000.0001) %MON vort_r_min                   =  -1.5729045109691E-05
(PID.TID 0000.0001) %MON vort_r_max                   =   1.7524907467338E-05
(PID.TID 0000.0001) %MON vort_a_mean                  =   6.9582958995909E-04
(PID.TID 0000.0001) %MON vort_a_sd                    =   1.4249391560560E-06
(PID.TID 0000.0001) %MON vort_p_mean                  =   7.0012686801198E-04
(PID.TID 0000.0001) %MON vort_p_sd                    =   9.4517813950432E-05
(PID.TID 0000.0001) %MON surfExpan_theta_mean         =   2.8975663755447E-15
(PID.TID 0000.0001) %MON surfExpan_salt_mean          =  -5.9123480159334E-22
(PID.TID 0000.0001) // =======================================================
(PID.TID 0000.0001) // End MONITOR dynamic field statistics
(PID.TID 0000.0001) // =======================================================
(PID.TID 0000.0001) // =======================================================
(PID.TID 0000.0001) // Begin OBCS MONITOR field statistics
(PID.TID 0000.0001) // =======================================================
(PID.TID 0000.0001) %MON obc_S_vVel_max               =   4.3388817846683E-04
(PID.TID 0000.0001) %MON obc_S_vVel_min               =  -7.3194692728476E-02
(PID.TID 0000.0001) %MON obc_S_vVel_mean              =  -7.4569325979064E-20
(PID.TID 0000.0001) %MON obc_S_vVel_sd                =   3.3010031868576E-03
(PID.TID 0000.0001) %MON obc_S_vVel_Int               =  -1.2661871551245E-10
(PID.TID 0000.0001) // =======================================================
(PID.TID 0000.0001) // End OBCS MONITOR field statistics
(PID.TID 0000.0001) // =======================================================
 EXTERNAL_FIELDS_LOAD,      1120 : iP,iLd,i0,i1=   56   57   56   57 ; Wght=  0.5000000000  0.5000000000
 cg2d: Sum(rhs),rhsMax =   1.13908882326541E-13  1.07580379600282E-03
 EXTERNAL_FIELDS_LOAD,      1121 : iP,iLd,i0,i1=   56   57   56   57 ; Wght=  0.4500000000  0.5500000000
 cg2d: Sum(rhs),rhsMax =  -6.05071548420710E-15  1.05534788530750E-03
 EXTERNAL_FIELDS_LOAD,      1122 : iP,iLd,i0,i1=   56   57   56   57 ; Wght=  0.4000000000  0.6000000000
 cg2d: Sum(rhs),rhsMax =   8.77631300966186E-13  1.03317617871625E-03
 EXTERNAL_FIELDS_LOAD,      1123 : iP,iLd,i0,i1=   56   57   56   57 ; Wght=  0.3500000000  0.6500000000
 cg2d: Sum(rhs),rhsMax =   1.80300219199125E-13  1.00931186430819E-03
 EXTERNAL_FIELDS_LOAD,      1124 : iP,iLd,i0,i1=   56   57   56   57 ; Wght=  0.3000000000  0.7000000000
 cg2d: Sum(rhs),rhsMax =   1.52433621281034E-12  9.83782231187747E-04
 EXTERNAL_FIELDS_LOAD,      1125 : iP,iLd,i0,i1=   56   57   56   57 ; Wght=  0.2500000000  0.7500000000
 cg2d: Sum(rhs),rhsMax =   4.15001366604884E-13  9.56618708164074E-04
 EXTERNAL_FIELDS_LOAD,      1126 : iP,iLd,i0,i1=   56   57   56   57 ; Wght=  0.2000000000  0.8000000000
 cg2d: Sum(rhs),rhsMax =   1.29429800210801E-12  9.57617750697639E-04
 EXTERNAL_FIELDS_LOAD,      1127 : iP,iLd,i0,i1=   56   57   56   57 ; Wght=  0.1500000000  0.8500000000
 cg2d: Sum(rhs),rhsMax =   1.44340095431517E-12  9.67082229655076E-04
 EXTERNAL_FIELDS_LOAD,      1128 : iP,iLd,i0,i1=   56   57   56   57 ; Wght=  0.1000000000  0.9000000000
 cg2d: Sum(rhs),rhsMax =   9.93760629341978E-13  9.75369736241606E-04
 EXTERNAL_FIELDS_LOAD,      1129 : iP,iLd,i0,i1=   56   57   56   57 ; Wght=  0.0500000000  0.9500000000
 cg2d: Sum(rhs),rhsMax =   2.51354492775135E-13  9.82438266324701E-04
 EXTERNAL_FIELDS_LOAD,      1130 : iP,iLd,i0,i1=   56   57   57   58 ; Wght=  1.0000000000  0.0000000000
 EXTERNAL_FIELDS_LOAD, it=      1130 : Reading new data, i0,i1=   57   58 (prev=   56   57 )
(PID.TID 0000.0001)  MDS_READ_FIELD: opening global file: ../input/merid_halfgauss2p5hr_272x320.bin
(PID.TID 0000.0001)  MDS_READ_FIELD: opening global file: ../input/merid_halfgauss2p5hr_272x320.bin
 cg2d: Sum(rhs),rhsMax =   1.64790403545112E-12  9.88248904850026E-04
 EXTERNAL_FIELDS_LOAD,      1131 : iP,iLd,i0,i1=   57   58   57   58 ; Wght=  0.9500000000  0.0500000000
 cg2d: Sum(rhs),rhsMax =   1.01307850997046E-12  9.92766053459875E-04
 EXTERNAL_FIELDS_LOAD,      1132 : iP,iLd,i0,i1=   57   58   57   58 ; Wght=  0.9000000000  0.1000000000
 cg2d: Sum(rhs),rhsMax =   4.91828799908944E-13  9.95957650852414E-04
 EXTERNAL_FIELDS_LOAD,      1133 : iP,iLd,i0,i1=   57   58   57   58 ; Wght=  0.8500000000  0.1500000000
 cg2d: Sum(rhs),rhsMax =  -1.42330591756945E-13  9.97795383544104E-04
 EXTERNAL_FIELDS_LOAD,      1134 : iP,iLd,i0,i1=   57   58   57   58 ; Wght=  0.8000000000  0.2000000000
 cg2d: Sum(rhs),rhsMax =   1.09934283898383E-12  9.98254884771858E-04
 EXTERNAL_FIELDS_LOAD,      1135 : iP,iLd,i0,i1=   57   58   57   58 ; Wght=  0.7500000000  0.2500000000
 cg2d: Sum(rhs),rhsMax =   8.72857341960298E-13  9.97315919429352E-04
 EXTERNAL_FIELDS_LOAD,      1136 : iP,iLd,i0,i1=   57   58   57   58 ; Wght=  0.7000000000  0.3000000000
 cg2d: Sum(rhs),rhsMax =   1.32249766693349E-12  9.94962553164667E-04
 EXTERNAL_FIELDS_LOAD,      1137 : iP,iLd,i0,i1=   57   58   57   58 ; Wght=  0.6500000000  0.3500000000
 cg2d: Sum(rhs),rhsMax =   8.17346190729040E-13  9.91183304060366E-04
 EXTERNAL_FIELDS_LOAD,      1138 : iP,iLd,i0,i1=   57   58   57   58 ; Wght=  0.6000000000  0.4000000000
 cg2d: Sum(rhs),rhsMax =   8.95727936267576E-13  9.85971275654316E-04
 EXTERNAL_FIELDS_LOAD,      1139 : iP,iLd,i0,i1=   57   58   57   58 ; Wght=  0.5500000000  0.4500000000
 cg2d: Sum(rhs),rhsMax =   3.93240995322230E-13  9.79324270419640E-04
(PID.TID 0000.0001)      cg2d_init_res =   1.06963226823414E+00
(PID.TID 0000.0001)      cg2d_iters(min,last) =      -1      34
(PID.TID 0000.0001)      cg2d_last_res =   9.87983493117124E-08
(PID.TID 0000.0001) // =======================================================
(PID.TID 0000.0001) // Begin MONITOR dynamic field statistics
(PID.TID 0000.0001) // =======================================================
(PID.TID 0000.0001) %MON time_tsnumber                =                  1140
(PID.TID 0000.0001) %MON time_secondsf                =   6.8400000000000E+04
(PID.TID 0000.0001) %MON dynstat_eta_max              =   7.5031378227613E-03
(PID.TID 0000.0001) %MON dynstat_eta_min              =  -5.2832802396147E-03
(PID.TID 0000.0001) %MON dynstat_eta_mean             =  -1.2022939631427E-19
(PID.TID 0000.0001) %MON dynstat_eta_sd               =   3.9931609056008E-04
(PID.TID 0000.0001) %MON dynstat_eta_del2             =   1.5816167324552E-07
(PID.TID 0000.0001) %MON dynstat_uvel_max             =   2.8476593961541E-02
(PID.TID 0000.0001) %MON dynstat_uvel_min             =  -8.7088749713193E-02
(PID.TID 0000.0001) %MON dynstat_uvel_mean            =  -2.3520801574853E-05
(PID.TID 0000.0001) %MON dynstat_uvel_sd              =   3.4780907786132E-03
(PID.TID 0000.0001) %MON dynstat_uvel_del2            =   1.5616983951169E-07
(PID.TID 0000.0001) %MON dynstat_vvel_max             =   2.0415200983630E-02
(PID.TID 0000.0001) %MON dynstat_vvel_min             =  -2.1958350579243E-02
(PID.TID 0000.0001) %MON dynstat_vvel_mean            =   3.1360549372022E-05
(PID.TID 0000.0001) %MON dynstat_vvel_sd              =   3.4586675137181E-04
(PID.TID 0000.0001) %MON dynstat_vvel_del2            =   1.4421830108004E-07
(PID.TID 0000.0001) %MON dynstat_wvel_max             =   4.7624530378213E-05
(PID.TID 0000.0001) %MON dynstat_wvel_min             =  -5.4318749060908E-05
(PID.TID 0000.0001) %MON dynstat_wvel_mean            =   4.9844255396573E-08
(PID.TID 0000.0001) %MON dynstat_wvel_sd              =   8.4316301401636E-07
(PID.TID 0000.0001) %MON dynstat_wvel_del2            =   1.3341229857240E-09
(PID.TID 0000.0001) %MON dynstat_theta_max            =   1.6579794247016E+01
(PID.TID 0000.0001) %MON dynstat_theta_min            =   4.2485724051249E+00
(PID.TID 0000.0001) %MON dynstat_theta_mean           =   7.6151827980088E+00
(PID.TID 0000.0001) %MON dynstat_theta_sd             =   3.6061697108725E+00
(PID.TID 0000.0001) %MON dynstat_theta_del2           =   1.7008261652612E-07
(PID.TID 0000.0001) %MON dynstat_salt_max             =   3.4471557805855E+01
(PID.TID 0000.0001) %MON dynstat_salt_min             =   3.3629960764973E+01
(PID.TID 0000.0001) %MON dynstat_salt_mean            =   3.4187265052043E+01
(PID.TID 0000.0001) %MON dynstat_salt_sd              =   2.7103561629112E-01
(PID.TID 0000.0001) %MON dynstat_salt_del2            =   7.2487120050354E-09
(PID.TID 0000.0001) %MON trAdv_CFL_u_max              =   2.5904756183455E-03
(PID.TID 0000.0001) %MON trAdv_CFL_v_max              =   7.5317377643966E-04
(PID.TID 0000.0001) %MON trAdv_CFL_w_max              =   5.7677706896893E-04
(PID.TID 0000.0001) %MON advcfl_uvel_max              =   2.5848941576337E-03
(PID.TID 0000.0001) %MON advcfl_vvel_max              =   6.5566887367103E-04
(PID.TID 0000.0001) %MON advcfl_wvel_max              =   5.3807007962466E-04
(PID.TID 0000.0001) %MON advcfl_W_hf_max              =   5.8485878220072E-04
(PID.TID 0000.0001) %MON pe_b_mean                    =   8.3590263128931E-10
(PID.TID 0000.0001) %MON ke_max                       =   5.5982495224194E-03
(PID.TID 0000.0001) %MON ke_mean                      =   6.1079347609623E-06
(PID.TID 0000.0001) %MON ke_vol                       =   8.2760855027014E+14
(PID.TID 0000.0001) %MON vort_r_min                   =  -1.6360740221202E-05
(PID.TID 0000.0001) %MON vort_r_max                   =   3.8911388057157E-05
(PID.TID 0000.0001) %MON vort_a_mean                  =   6.9582958995909E-04
(PID.TID 0000.0001) %MON vort_a_sd                    =   1.4288705307129E-06
(PID.TID 0000.0001) %MON vort_p_mean                  =   7.0012686801198E-04
(PID.TID 0000.0001) %MON vort_p_sd                    =   9.4520293945670E-05
(PID.TID 0000.0001) %MON surfExpan_theta_mean         =  -6.9803594005906E-13
(PID.TID 0000.0001) %MON surfExpan_salt_mean          =   4.3854198761663E-22
(PID.TID 0000.0001) // =======================================================
(PID.TID 0000.0001) // End MONITOR dynamic field statistics
(PID.TID 0000.0001) // =======================================================
(PID.TID 0000.0001) // =======================================================
(PID.TID 0000.0001) // Begin OBCS MONITOR field statistics
(PID.TID 0000.0001) // =======================================================
(PID.TID 0000.0001) %MON obc_S_vVel_max               =   1.6404602287315E-04
(PID.TID 0000.0001) %MON obc_S_vVel_min               =  -2.1958350579243E-02
(PID.TID 0000.0001) %MON obc_S_vVel_mean              =   2.8844352636009E-20
(PID.TID 0000.0001) %MON obc_S_vVel_sd                =   9.9066343895968E-04
(PID.TID 0000.0001) %MON obc_S_vVel_Int               =   4.8977710775944E-11
(PID.TID 0000.0001) // =======================================================
(PID.TID 0000.0001) // End OBCS MONITOR field statistics
(PID.TID 0000.0001) // =======================================================
 EXTERNAL_FIELDS_LOAD,      1140 : iP,iLd,i0,i1=   57   58   57   58 ; Wght=  0.5000000000  0.5000000000
 cg2d: Sum(rhs),rhsMax =   5.91082738310433E-13  9.71244883183719E-04
 EXTERNAL_FIELDS_LOAD,      1141 : iP,iLd,i0,i1=   57   58   57   58 ; Wght=  0.4500000000  0.5500000000
 cg2d: Sum(rhs),rhsMax =   7.54951656745106E-13  9.61740574343364E-04
 EXTERNAL_FIELDS_LOAD,      1142 : iP,iLd,i0,i1=   57   58   57   58 ; Wght=  0.4000000000  0.6000000000
 cg2d: Sum(rhs),rhsMax =   7.77822251052385E-13  9.58005019295039E-04
 EXTERNAL_FIELDS_LOAD,      1143 : iP,iLd,i0,i1=   57   58   57   58 ; Wght=  0.3500000000  0.6500000000
 cg2d: Sum(rhs),rhsMax =   9.49906819869284E-13  9.55283894764743E-04
 EXTERNAL_FIELDS_LOAD,      1144 : iP,iLd,i0,i1=   57   58   57   58 ; Wght=  0.3000000000  0.7000000000
 cg2d: Sum(rhs),rhsMax =   4.91384710699094E-13  9.51268544210295E-04
 EXTERNAL_FIELDS_LOAD,      1145 : iP,iLd,i0,i1=   57   58   57   58 ; Wght=  0.2500000000  0.7500000000
 cg2d: Sum(rhs),rhsMax =   8.31557045444242E-13  9.45964075510067E-04
 EXTERNAL_FIELDS_LOAD,      1146 : iP,iLd,i0,i1=   57   58   57   58 ; Wght=  0.2000000000  0.8000000000
 cg2d: Sum(rhs),rhsMax =   9.29478716216181E-13  9.39380547687482E-04
 EXTERNAL_FIELDS_LOAD,      1147 : iP,iLd,i0,i1=   57   58   57   58 ; Wght=  0.1500000000  0.8500000000
 cg2d: Sum(rhs),rhsMax =   1.03606012658020E-12  9.31532989415728E-04
 EXTERNAL_FIELDS_LOAD,      1148 : iP,iLd,i0,i1=   57   58   57   58 ; Wght=  0.1000000000  0.9000000000
 cg2d: Sum(rhs),rhsMax =   5.39568389967826E-13  9.22441401117230E-04
 EXTERNAL_FIELDS_LOAD,      1149 : iP,iLd,i0,i1=   57   58   57   58 ; Wght=  0.0500000000  0.9500000000
 cg2d: Sum(rhs),rhsMax =   5.85309578582383E-13  9.12130741045285E-04
 EXTERNAL_FIELDS_LOAD,      1150 : iP,iLd,i0,i1=   57   58   58   59 ; Wght=  1.0000000000  0.0000000000
 EXTERNAL_FIELDS_LOAD, it=      1150 : Reading new data, i0,i1=   58   59 (prev=   57   58 )
(PID.TID 0000.0001)  MDS_READ_FIELD: opening global file: ../input/merid_halfgauss2p5hr_272x320.bin
(PID.TID 0000.0001)  MDS_READ_FIELD: opening global file: ../input/merid_halfgauss2p5hr_272x320.bin
 cg2d: Sum(rhs),rhsMax =   3.52606832620950E-13  9.00630895560742E-04
 EXTERNAL_FIELDS_LOAD,      1151 : iP,iLd,i0,i1=   58   59   58   59 ; Wght=  0.9500000000  0.0500000000
 cg2d: Sum(rhs),rhsMax =   6.27942142727989E-13  9.05980725927618E-04
 EXTERNAL_FIELDS_LOAD,      1152 : iP,iLd,i0,i1=   58   59   58   59 ; Wght=  0.9000000000  0.1000000000
 cg2d: Sum(rhs),rhsMax =   5.12923037376822E-13  9.27894977671845E-04
 EXTERNAL_FIELDS_LOAD,      1153 : iP,iLd,i0,i1=   58   59   58   59 ; Wght=  0.8500000000  0.1500000000
 cg2d: Sum(rhs),rhsMax =   5.73319169916431E-13  9.65616204452112E-04
 EXTERNAL_FIELDS_LOAD,      1154 : iP,iLd,i0,i1=   58   59   58   59 ; Wght=  0.8000000000  0.2000000000
 cg2d: Sum(rhs),rhsMax =   5.89306381471033E-13  1.01015950239420E-03
 EXTERNAL_FIELDS_LOAD,      1155 : iP,iLd,i0,i1=   58   59   58   59 ; Wght=  0.7500000000  0.2500000000
 cg2d: Sum(rhs),rhsMax =   4.92494933723719E-13  1.05319236140380E-03
 EXTERNAL_FIELDS_LOAD,      1156 : iP,iLd,i0,i1=   58   59   58   59 ; Wght=  0.7000000000  0.3000000000
 cg2d: Sum(rhs),rhsMax =   5.34683408659475E-13  1.09455781156148E-03
 EXTERNAL_FIELDS_LOAD,      1157 : iP,iLd,i0,i1=   58   59   58   59 ; Wght=  0.6500000000  0.3500000000
 cg2d: Sum(rhs),rhsMax =   5.88418203051333E-13  1.13410115505869E-03
 EXTERNAL_FIELDS_LOAD,      1158 : iP,iLd,i0,i1=   58   59   58   59 ; Wght=  0.6000000000  0.4000000000
 cg2d: Sum(rhs),rhsMax =   6.71018796083445E-13  1.17167042120025E-03
 EXTERNAL_FIELDS_LOAD,      1159 : iP,iLd,i0,i1=   58   59   58   59 ; Wght=  0.5500000000  0.4500000000
 cg2d: Sum(rhs),rhsMax =   5.44897460486027E-13  1.20711683796688E-03
(PID.TID 0000.0001)      cg2d_init_res =   9.71281324208597E-01
(PID.TID 0000.0001)      cg2d_iters(min,last) =      -1      34
(PID.TID 0000.0001)      cg2d_last_res =   9.06685557200577E-08
(PID.TID 0000.0001) // =======================================================
(PID.TID 0000.0001) // Begin MONITOR dynamic field statistics
(PID.TID 0000.0001) // =======================================================
(PID.TID 0000.0001) %MON time_tsnumber                =                  1160
(PID.TID 0000.0001) %MON time_secondsf                =   6.9600000000000E+04
(PID.TID 0000.0001) %MON dynstat_eta_max              =   7.2792720186751E-03
(PID.TID 0000.0001) %MON dynstat_eta_min              =  -6.6818399323962E-03
(PID.TID 0000.0001) %MON dynstat_eta_mean             =  -7.1598020355735E-20
(PID.TID 0000.0001) %MON dynstat_eta_sd               =   3.7490966985519E-04
(PID.TID 0000.0001) %MON dynstat_eta_del2             =   1.4675095671912E-07
(PID.TID 0000.0001) %MON dynstat_uvel_max             =   2.8374510277106E-02
(PID.TID 0000.0001) %MON dynstat_uvel_min             =  -6.7951475290559E-02
(PID.TID 0000.0001) %MON dynstat_uvel_mean            =   1.0188685330807E-05
(PID.TID 0000.0001) %MON dynstat_uvel_sd              =   2.2946587778124E-03
(PID.TID 0000.0001) %MON dynstat_uvel_del2            =   1.5489661814637E-07
(PID.TID 0000.0001) %MON dynstat_vvel_max             =   7.2594305517118E-02
(PID.TID 0000.0001) %MON dynstat_vvel_min             =  -1.1587545238450E-02
(PID.TID 0000.0001) %MON dynstat_vvel_mean            =   4.0070117861403E-05
(PID.TID 0000.0001) %MON dynstat_vvel_sd              =   2.6257466847206E-03
(PID.TID 0000.0001) %MON dynstat_vvel_del2            =   1.3855642604627E-07
(PID.TID 0000.0001) %MON dynstat_wvel_max             =   4.2703712589526E-05
(PID.TID 0000.0001) %MON dynstat_wvel_min             =  -5.7960492367144E-05
(PID.TID 0000.0001) %MON dynstat_wvel_mean            =  -8.0097755778365E-08
(PID.TID 0000.0001) %MON dynstat_wvel_sd              =   1.1175625650974E-06
(PID.TID 0000.0001) %MON dynstat_wvel_del2            =   1.3069730899008E-09
(PID.TID 0000.0001) %MON dynstat_theta_max            =   1.6579786224240E+01
(PID.TID 0000.0001) %MON dynstat_theta_min            =   4.2485842773587E+00
(PID.TID 0000.0001) %MON dynstat_theta_mean           =   7.6151832204309E+00
(PID.TID 0000.0001) %MON dynstat_theta_sd             =   3.6061690059016E+00
(PID.TID 0000.0001) %MON dynstat_theta_del2           =   1.6753057124616E-07
(PID.TID 0000.0001) %MON dynstat_salt_max             =   3.4471556469830E+01
(PID.TID 0000.0001) %MON dynstat_salt_min             =   3.3629961870936E+01
(PID.TID 0000.0001) %MON dynstat_salt_mean            =   3.4187265029146E+01
(PID.TID 0000.0001) %MON dynstat_salt_sd              =   2.7103557832168E-01
(PID.TID 0000.0001) %MON dynstat_salt_del2            =   7.2473450941074E-09
(PID.TID 0000.0001) %MON trAdv_CFL_u_max              =   2.1501986841772E-03
(PID.TID 0000.0001) %MON trAdv_CFL_v_max              =   2.1137059636683E-03
(PID.TID 0000.0001) %MON trAdv_CFL_w_max              =   5.9971340665522E-04
(PID.TID 0000.0001) %MON advcfl_uvel_max              =   2.0956145536213E-03
(PID.TID 0000.0001) %MON advcfl_vvel_max              =   2.1676412516309E-03
(PID.TID 0000.0001) %MON advcfl_wvel_max              =   5.4556852812770E-04
(PID.TID 0000.0001) %MON advcfl_W_hf_max              =   5.9300926970403E-04
(PID.TID 0000.0001) %MON pe_b_mean                    =   7.3684366729834E-10
(PID.TID 0000.0001) %MON ke_max                       =   4.4700143897283E-03
(PID.TID 0000.0001) %MON ke_mean                      =   6.0768435496273E-06
(PID.TID 0000.0001) %MON ke_vol                       =   8.2760855027014E+14
(PID.TID 0000.0001) %MON vort_r_min                   =  -1.3243383838920E-05
(PID.TID 0000.0001) %MON vort_r_max                   =   3.4836679538685E-05
(PID.TID 0000.0001) %MON vort_a_mean                  =   6.9582958995909E-04
(PID.TID 0000.0001) %MON vort_a_sd                    =   1.4279964889757E-06
(PID.TID 0000.0001) %MON vort_p_mean                  =   7.0012686801198E-04
(PID.TID 0000.0001) %MON vort_p_sd                    =   9.4520252327629E-05
(PID.TID 0000.0001) %MON surfExpan_theta_mean         =  -5.8750242867287E-13
(PID.TID 0000.0001) %MON surfExpan_salt_mean          =  -3.6183569857513E-21
(PID.TID 0000.0001) // =======================================================
(PID.TID 0000.0001) // End MONITOR dynamic field statistics
(PID.TID 0000.0001) // =======================================================
(PID.TID 0000.0001) // =======================================================
(PID.TID 0000.0001) // Begin OBCS MONITOR field statistics
(PID.TID 0000.0001) // =======================================================
(PID.TID 0000.0001) %MON obc_S_vVel_max               =   4.3278848495187E-02
(PID.TID 0000.0001) %MON obc_S_vVel_min               =  -2.3052208563847E-04
(PID.TID 0000.0001) %MON obc_S_vVel_mean              =  -2.1508773037732E-20
(PID.TID 0000.0001) %MON obc_S_vVel_sd                =   1.9527040496788E-03
(PID.TID 0000.0001) %MON obc_S_vVel_Int               =  -3.6521896618069E-11
(PID.TID 0000.0001) // =======================================================
(PID.TID 0000.0001) // End OBCS MONITOR field statistics
(PID.TID 0000.0001) // =======================================================
 EXTERNAL_FIELDS_LOAD,      1160 : iP,iLd,i0,i1=   58   59   58   59 ; Wght=  0.5000000000  0.5000000000
 cg2d: Sum(rhs),rhsMax =   5.43121103646627E-13  1.24029531959514E-03
 EXTERNAL_FIELDS_LOAD,      1161 : iP,iLd,i0,i1=   58   59   58   59 ; Wght=  0.4500000000  0.5500000000
 cg2d: Sum(rhs),rhsMax =   4.98712182661620E-13  1.27106496735666E-03
 EXTERNAL_FIELDS_LOAD,      1162 : iP,iLd,i0,i1=   58   59   58   59 ; Wght=  0.4000000000  0.6000000000
 cg2d: Sum(rhs),rhsMax =   4.21440660147709E-13  1.29928958173888E-03
 EXTERNAL_FIELDS_LOAD,      1163 : iP,iLd,i0,i1=   58   59   58   59 ; Wght=  0.3500000000  0.6500000000
 cg2d: Sum(rhs),rhsMax =   4.62296867453915E-13  1.32483818348510E-03
 EXTERNAL_FIELDS_LOAD,      1164 : iP,iLd,i0,i1=   58   59   58   59 ; Wght=  0.3000000000  0.7000000000
 cg2d: Sum(rhs),rhsMax =   6.84341472378946E-13  1.34758554076575E-03
 EXTERNAL_FIELDS_LOAD,      1165 : iP,iLd,i0,i1=   58   59   58   59 ; Wght=  0.2500000000  0.7500000000
 cg2d: Sum(rhs),rhsMax =   3.49498208151999E-13  1.36741269952214E-03
 EXTERNAL_FIELDS_LOAD,      1166 : iP,iLd,i0,i1=   58   59   58   59 ; Wght=  0.2000000000  0.8000000000
 cg2d: Sum(rhs),rhsMax =   4.10782519111308E-13  1.38420751381875E-03
 EXTERNAL_FIELDS_LOAD,      1167 : iP,iLd,i0,i1=   58   59   58   59 ; Wght=  0.1500000000  0.8500000000
 cg2d: Sum(rhs),rhsMax =   7.37632177560954E-13  1.39786517286057E-03
 EXTERNAL_FIELDS_LOAD,      1168 : iP,iLd,i0,i1=   58   59   58   59 ; Wght=  0.1000000000  0.9000000000
 cg2d: Sum(rhs),rhsMax =   8.48210390813620E-14  1.41825096992057E-03
 EXTERNAL_FIELDS_LOAD,      1169 : iP,iLd,i0,i1=   58   59   58   59 ; Wght=  0.0500000000  0.9500000000
 cg2d: Sum(rhs),rhsMax =  -4.97379915032070E-14  1.44688532292292E-03
 EXTERNAL_FIELDS_LOAD,      1170 : iP,iLd,i0,i1=   58   59   59   60 ; Wght=  1.0000000000  0.0000000000
 EXTERNAL_FIELDS_LOAD, it=      1170 : Reading new data, i0,i1=   59   60 (prev=   58   59 )
(PID.TID 0000.0001)  MDS_READ_FIELD: opening global file: ../input/merid_halfgauss2p5hr_272x320.bin
(PID.TID 0000.0001)  MDS_READ_FIELD: opening global file: ../input/merid_halfgauss2p5hr_272x320.bin
 cg2d: Sum(rhs),rhsMax =   2.08721928629529E-13  1.47245984895442E-03
 EXTERNAL_FIELDS_LOAD,      1171 : iP,iLd,i0,i1=   59   60   59   60 ; Wght=  0.9500000000  0.0500000000
 cg2d: Sum(rhs),rhsMax =   2.20046203480706E-13  1.49482922574879E-03
 EXTERNAL_FIELDS_LOAD,      1172 : iP,iLd,i0,i1=   59   60   59   60 ; Wght=  0.9000000000  0.1000000000
 cg2d: Sum(rhs),rhsMax =   6.56807941368243E-13  1.51385707503788E-03
 EXTERNAL_FIELDS_LOAD,      1173 : iP,iLd,i0,i1=   59   60   59   60 ; Wght=  0.8500000000  0.1500000000
 cg2d: Sum(rhs),rhsMax =  -1.46549439250521E-14  1.52941665234815E-03
 EXTERNAL_FIELDS_LOAD,      1174 : iP,iLd,i0,i1=   59   60   59   60 ; Wght=  0.8000000000  0.2000000000
 cg2d: Sum(rhs),rhsMax =  -1.54543045027822E-13  1.54139150824176E-03
 EXTERNAL_FIELDS_LOAD,      1175 : iP,iLd,i0,i1=   59   60   59   60 ; Wght=  0.7500000000  0.2500000000
 cg2d: Sum(rhs),rhsMax =  -2.33812968986058E-13  1.54967611668648E-03
 EXTERNAL_FIELDS_LOAD,      1176 : iP,iLd,i0,i1=   59   60   59   60 ; Wght=  0.7000000000  0.3000000000
 cg2d: Sum(rhs),rhsMax =  -1.86961557346876E-13  1.55417646631609E-03
 EXTERNAL_FIELDS_LOAD,      1177 : iP,iLd,i0,i1=   59   60   59   60 ; Wght=  0.6500000000  0.3500000000
 cg2d: Sum(rhs),rhsMax =   1.46105350040671E-13  1.55481061052476E-03
 EXTERNAL_FIELDS_LOAD,      1178 : iP,iLd,i0,i1=   59   60   59   60 ; Wght=  0.6000000000  0.4000000000
 cg2d: Sum(rhs),rhsMax =   4.88276086230144E-13  1.55150917254738E-03
 EXTERNAL_FIELDS_LOAD,      1179 : iP,iLd,i0,i1=   59   60   59   60 ; Wght=  0.5500000000  0.4500000000
 cg2d: Sum(rhs),rhsMax =   8.99280649946377E-14  1.54421580190929E-03
(PID.TID 0000.0001)      cg2d_init_res =   2.78133635447066E-01
(PID.TID 0000.0001)      cg2d_iters(min,last) =      -1      33
(PID.TID 0000.0001)      cg2d_last_res =   6.42337555340642E-08
(PID.TID 0000.0001) // =======================================================
(PID.TID 0000.0001) // Begin MONITOR dynamic field statistics
(PID.TID 0000.0001) // =======================================================
(PID.TID 0000.0001) %MON time_tsnumber                =                  1180
(PID.TID 0000.0001) %MON time_secondsf                =   7.0800000000000E+04
(PID.TID 0000.0001) %MON dynstat_eta_max              =   6.6325436042986E-03
(PID.TID 0000.0001) %MON dynstat_eta_min              =  -7.7688464703860E-03
(PID.TID 0000.0001) %MON dynstat_eta_mean             =   1.6649172012869E-20
(PID.TID 0000.0001) %MON dynstat_eta_sd               =   4.5296464871722E-04
(PID.TID 0000.0001) %MON dynstat_eta_del2             =   1.4007417680067E-07
(PID.TID 0000.0001) %MON dynstat_uvel_max             =   2.8499393874415E-02
(PID.TID 0000.0001) %MON dynstat_uvel_min             =  -2.0333352098779E-02
(PID.TID 0000.0001) %MON dynstat_uvel_mean            =   3.1171749648383E-05
(PID.TID 0000.0001) %MON dynstat_uvel_sd              =   5.3949746050531E-04
(PID.TID 0000.0001) %MON dynstat_uvel_del2            =   1.4289857063753E-07
(PID.TID 0000.0001) %MON dynstat_vvel_max             =   8.5759047712504E-02
(PID.TID 0000.0001) %MON dynstat_vvel_min             =  -1.3680331191075E-02
(PID.TID 0000.0001) %MON dynstat_vvel_mean            =   4.2203937403279E-06
(PID.TID 0000.0001) %MON dynstat_vvel_sd              =   3.4392116008659E-03
(PID.TID 0000.0001) %MON dynstat_vvel_del2            =   1.4486548665389E-07
(PID.TID 0000.0001) %MON dynstat_wvel_max             =   3.9748099551587E-05
(PID.TID 0000.0001) %MON dynstat_wvel_min             =  -6.2501797491542E-05
(PID.TID 0000.0001) %MON dynstat_wvel_mean            =  -1.5725984539465E-07
(PID.TID 0000.0001) %MON dynstat_wvel_sd              =   1.2271146012338E-06
(PID.TID 0000.0001) %MON dynstat_wvel_del2            =   1.3143823575676E-09
(PID.TID 0000.0001) %MON dynstat_theta_max            =   1.6579777870663E+01
(PID.TID 0000.0001) %MON dynstat_theta_min            =   4.2486023731740E+00
(PID.TID 0000.0001) %MON dynstat_theta_mean           =   7.6151858861398E+00
(PID.TID 0000.0001) %MON dynstat_theta_sd             =   3.6061707220610E+00
(PID.TID 0000.0001) %MON dynstat_theta_del2           =   1.6354434958232E-07
(PID.TID 0000.0001) %MON dynstat_salt_max             =   3.4471554433722E+01
(PID.TID 0000.0001) %MON dynstat_salt_min             =   3.3629962452238E+01
(PID.TID 0000.0001) %MON dynstat_salt_mean            =   3.4187264869973E+01
(PID.TID 0000.0001) %MON dynstat_salt_sd              =   2.7103564951405E-01
(PID.TID 0000.0001) %MON dynstat_salt_del2            =   7.1791888728543E-09
(PID.TID 0000.0001) %MON trAdv_CFL_u_max              =   7.7980672783011E-04
(PID.TID 0000.0001) %MON trAdv_CFL_v_max              =   2.5810924693732E-03
(PID.TID 0000.0001) %MON trAdv_CFL_w_max              =   6.5988055465778E-04
(PID.TID 0000.0001) %MON advcfl_uvel_max              =   8.5138471580817E-04
(PID.TID 0000.0001) %MON advcfl_vvel_max              =   2.5607359723053E-03
(PID.TID 0000.0001) %MON advcfl_wvel_max              =   6.1199662110869E-04
(PID.TID 0000.0001) %MON advcfl_W_hf_max              =   6.6521371859641E-04
(PID.TID 0000.0001) %MON pe_b_mean                    =   1.0755997422596E-09
(PID.TID 0000.0001) %MON ke_max                       =   3.7070826530663E-03
(PID.TID 0000.0001) %MON ke_mean                      =   6.0467401241514E-06
(PID.TID 0000.0001) %MON ke_vol                       =   8.2760855027014E+14
(PID.TID 0000.0001) %MON vort_r_min                   =  -8.2431594962540E-06
(PID.TID 0000.0001) %MON vort_r_max                   =   1.2907826766332E-05
(PID.TID 0000.0001) %MON vort_a_mean                  =   6.9582958995909E-04
(PID.TID 0000.0001) %MON vort_a_sd                    =   1.4244678931396E-06
(PID.TID 0000.0001) %MON vort_p_mean                  =   7.0012686801198E-04
(PID.TID 0000.0001) %MON vort_p_sd                    =   9.4517655736454E-05
(PID.TID 0000.0001) %MON surfExpan_theta_mean         =   1.8172375291426E-13
(PID.TID 0000.0001) %MON surfExpan_salt_mean          =  -2.3389120221728E-21
(PID.TID 0000.0001) // =======================================================
(PID.TID 0000.0001) // End MONITOR dynamic field statistics
(PID.TID 0000.0001) // =======================================================
(PID.TID 0000.0001) // =======================================================
(PID.TID 0000.0001) // Begin OBCS MONITOR field statistics
(PID.TID 0000.0001) // =======================================================
(PID.TID 0000.0001) %MON obc_S_vVel_max               =   7.9799831480802E-02
(PID.TID 0000.0001) %MON obc_S_vVel_min               =  -4.6190636869831E-04
(PID.TID 0000.0001) %MON obc_S_vVel_mean              =  -1.0310820382290E-19
(PID.TID 0000.0001) %MON obc_S_vVel_sd                =   3.6012796373541E-03
(PID.TID 0000.0001) %MON obc_S_vVel_Int               =  -1.7507773009129E-10
(PID.TID 0000.0001) // =======================================================
(PID.TID 0000.0001) // End OBCS MONITOR field statistics
(PID.TID 0000.0001) // =======================================================
 EXTERNAL_FIELDS_LOAD,      1180 : iP,iLd,i0,i1=   59   60   59   60 ; Wght=  0.5000000000  0.5000000000
 cg2d: Sum(rhs),rhsMax =   5.18918241709798E-13  1.53288757888042E-03
 EXTERNAL_FIELDS_LOAD,      1181 : iP,iLd,i0,i1=   59   60   59   60 ; Wght=  0.4500000000  0.5500000000
 cg2d: Sum(rhs),rhsMax =   8.83737527601625E-14  1.51808612427114E-03
 EXTERNAL_FIELDS_LOAD,      1182 : iP,iLd,i0,i1=   59   60   59   60 ; Wght=  0.4000000000  0.6000000000
 cg2d: Sum(rhs),rhsMax =   1.47881706880071E-13  1.51893938610500E-03
 EXTERNAL_FIELDS_LOAD,      1183 : iP,iLd,i0,i1=   59   60   59   60 ; Wght=  0.3500000000  0.6500000000
 cg2d: Sum(rhs),rhsMax =   1.03250741290140E-13  1.51600488021117E-03
 EXTERNAL_FIELDS_LOAD,      1184 : iP,iLd,i0,i1=   59   60   59   60 ; Wght=  0.3000000000  0.7000000000
 cg2d: Sum(rhs),rhsMax =   3.41504602374698E-13  1.50922547819146E-03
 EXTERNAL_FIELDS_LOAD,      1185 : iP,iLd,i0,i1=   59   60   59   60 ; Wght=  0.2500000000  0.7500000000
 cg2d: Sum(rhs),rhsMax =   1.99840144432528E-14  1.49855815195596E-03
 EXTERNAL_FIELDS_LOAD,      1186 : iP,iLd,i0,i1=   59   60   59   60 ; Wght=  0.2000000000  0.8000000000
 cg2d: Sum(rhs),rhsMax =   8.38440428196918E-13  1.48397424218153E-03
 EXTERNAL_FIELDS_LOAD,      1187 : iP,iLd,i0,i1=   59   60   59   60 ; Wght=  0.1500000000  0.8500000000
 cg2d: Sum(rhs),rhsMax =   3.01536573488193E-13  1.46545966055365E-03
 EXTERNAL_FIELDS_LOAD,      1188 : iP,iLd,i0,i1=   59   60   59   60 ; Wght=  0.1000000000  0.9000000000
 cg2d: Sum(rhs),rhsMax =   5.14033260401447E-13  1.44301502477926E-03
 EXTERNAL_FIELDS_LOAD,      1189 : iP,iLd,i0,i1=   59   60   59   60 ; Wght=  0.0500000000  0.9500000000
 cg2d: Sum(rhs),rhsMax =   7.74491581978509E-13  1.41665572579981E-03
 EXTERNAL_FIELDS_LOAD,      1190 : iP,iLd,i0,i1=   59   60   60    1 ; Wght=  1.0000000000  0.0000000000
 EXTERNAL_FIELDS_LOAD, it=      1190 : Reading new data, i0,i1=   60    1 (prev=   59   60 )
(PID.TID 0000.0001)  MDS_READ_FIELD: opening global file: ../input/merid_halfgauss2p5hr_272x320.bin
(PID.TID 0000.0001)  MDS_READ_FIELD: opening global file: ../input/merid_halfgauss2p5hr_272x320.bin
 cg2d: Sum(rhs),rhsMax =   6.00852700927135E-13  1.38641192710491E-03
 EXTERNAL_FIELDS_LOAD,      1191 : iP,iLd,i0,i1=   60    1   60    1 ; Wght=  0.9500000000  0.0500000000
 cg2d: Sum(rhs),rhsMax =   1.10578213252666E-13  1.35299519578672E-03
 EXTERNAL_FIELDS_LOAD,      1192 : iP,iLd,i0,i1=   60    1   60    1 ; Wght=  0.9000000000  0.1000000000
 cg2d: Sum(rhs),rhsMax =   8.64419646973147E-13  1.31685898003353E-03
 EXTERNAL_FIELDS_LOAD,      1193 : iP,iLd,i0,i1=   60    1   60    1 ; Wght=  0.8500000000  0.1500000000
 cg2d: Sum(rhs),rhsMax =   1.50990331349021E-14  1.28527105127440E-03
 EXTERNAL_FIELDS_LOAD,      1194 : iP,iLd,i0,i1=   60    1   60    1 ; Wght=  0.8000000000  0.2000000000
 cg2d: Sum(rhs),rhsMax =   8.51541059887495E-13  1.25343467463161E-03
 EXTERNAL_FIELDS_LOAD,      1195 : iP,iLd,i0,i1=   60    1   60    1 ; Wght=  0.7500000000  0.2500000000
 cg2d: Sum(rhs),rhsMax =  -2.30926389122033E-14  1.21883744806494E-03
 EXTERNAL_FIELDS_LOAD,      1196 : iP,iLd,i0,i1=   60    1   60    1 ; Wght=  0.7000000000  0.3000000000
 cg2d: Sum(rhs),rhsMax =   7.37188088351104E-14  1.18170959616052E-03
 EXTERNAL_FIELDS_LOAD,      1197 : iP,iLd,i0,i1=   60    1   60    1 ; Wght=  0.6500000000  0.3500000000
 cg2d: Sum(rhs),rhsMax =   8.40882918851094E-13  1.14229341450451E-03
 EXTERNAL_FIELDS_LOAD,      1198 : iP,iLd,i0,i1=   60    1   60    1 ; Wght=  0.6000000000  0.4000000000
 cg2d: Sum(rhs),rhsMax =  -1.40998324127395E-13  1.10083184581762E-03
 EXTERNAL_FIELDS_LOAD,      1199 : iP,iLd,i0,i1=   60    1   60    1 ; Wght=  0.5500000000  0.4500000000
 cg2d: Sum(rhs),rhsMax =   1.37223565843669E-13  1.06150634897115E-03
(PID.TID 0000.0001)      cg2d_init_res =   9.80433923493690E-01
(PID.TID 0000.0001)      cg2d_iters(min,last) =      -1      35
(PID.TID 0000.0001)      cg2d_last_res =   6.31394077526982E-08
(PID.TID 0000.0001) // =======================================================
(PID.TID 0000.0001) // Begin MONITOR dynamic field statistics
(PID.TID 0000.0001) // =======================================================
(PID.TID 0000.0001) %MON time_tsnumber                =                  1200
(PID.TID 0000.0001) %MON time_secondsf                =   7.2000000000000E+04
(PID.TID 0000.0001) %MON dynstat_eta_max              =   4.9775205065335E-03
(PID.TID 0000.0001) %MON dynstat_eta_min              =  -6.0899999621171E-03
(PID.TID 0000.0001) %MON dynstat_eta_mean             =  -5.0704296584645E-20
(PID.TID 0000.0001) %MON dynstat_eta_sd               =   3.4411396429972E-04
(PID.TID 0000.0001) %MON dynstat_eta_del2             =   1.4184203523411E-07
(PID.TID 0000.0001) %MON dynstat_uvel_max             =   7.7506106862725E-02
(PID.TID 0000.0001) %MON dynstat_uvel_min             =  -1.2498043552144E-02
(PID.TID 0000.0001) %MON dynstat_uvel_mean            =   1.6777724392283E-05
(PID.TID 0000.0001) %MON dynstat_uvel_sd              =   2.8256233975531E-03
(PID.TID 0000.0001) %MON dynstat_uvel_del2            =   1.4455797225999E-07
(PID.TID 0000.0001) %MON dynstat_vvel_max             =   6.4914030883620E-02
(PID.TID 0000.0001) %MON dynstat_vvel_min             =  -1.2957136314766E-02
(PID.TID 0000.0001) %MON dynstat_vvel_mean            =  -3.5035851117165E-05
(PID.TID 0000.0001) %MON dynstat_vvel_sd              =   2.0342842753293E-03
(PID.TID 0000.0001) %MON dynstat_vvel_del2            =   1.4077212229033E-07
(PID.TID 0000.0001) %MON dynstat_wvel_max             =   4.2827252642764E-05
(PID.TID 0000.0001) %MON dynstat_wvel_min             =  -5.8304251890668E-05
(PID.TID 0000.0001) %MON dynstat_wvel_mean            =  -1.3270248187341E-07
(PID.TID 0000.0001) %MON dynstat_wvel_sd              =   9.4834209162594E-07
(PID.TID 0000.0001) %MON dynstat_wvel_del2            =   1.2648313411366E-09
(PID.TID 0000.0001) %MON dynstat_theta_max            =   1.6579769138126E+01
(PID.TID 0000.0001) %MON dynstat_theta_min            =   4.2486229711204E+00
(PID.TID 0000.0001) %MON dynstat_theta_mean           =   7.6151890605920E+00
(PID.TID 0000.0001) %MON dynstat_theta_sd             =   3.6061729291458E+00
(PID.TID 0000.0001) %MON dynstat_theta_del2           =   1.6205494787083E-07
(PID.TID 0000.0001) %MON dynstat_salt_max             =   3.4471552115663E+01
(PID.TID 0000.0001) %MON dynstat_salt_min             =   3.3629962386760E+01
(PID.TID 0000.0001) %MON dynstat_salt_mean            =   3.4187264678171E+01
(PID.TID 0000.0001) %MON dynstat_salt_sd              =   2.7103574340944E-01
(PID.TID 0000.0001) %MON dynstat_salt_del2            =   7.2017196755255E-09
(PID.TID 0000.0001) %MON trAdv_CFL_u_max              =   2.2648713721626E-03
(PID.TID 0000.0001) %MON trAdv_CFL_v_max              =   1.9956119820785E-03
(PID.TID 0000.0001) %MON trAdv_CFL_w_max              =   6.0286000487394E-04
(PID.TID 0000.0001) %MON advcfl_uvel_max              =   2.3154582811011E-03
(PID.TID 0000.0001) %MON advcfl_vvel_max              =   1.9383108654410E-03
(PID.TID 0000.0001) %MON advcfl_wvel_max              =   5.4484808667054E-04
(PID.TID 0000.0001) %MON advcfl_W_hf_max              =   5.9222618116363E-04
(PID.TID 0000.0001) %MON pe_b_mean                    =   6.2076420290033E-10
(PID.TID 0000.0001) %MON ke_max                       =   4.9971647397835E-03
(PID.TID 0000.0001) %MON ke_mean                      =   6.0530109279946E-06
(PID.TID 0000.0001) %MON ke_vol                       =   8.2760855027014E+14
(PID.TID 0000.0001) %MON vort_r_min                   =  -2.3710967455260E-05
(PID.TID 0000.0001) %MON vort_r_max                   =   1.2177718091441E-05
(PID.TID 0000.0001) %MON vort_a_mean                  =   6.9582958995909E-04
(PID.TID 0000.0001) %MON vort_a_sd                    =   1.4260624014589E-06
(PID.TID 0000.0001) %MON vort_p_mean                  =   7.0012686801198E-04
(PID.TID 0000.0001) %MON vort_p_sd                    =   9.4514326621160E-05
(PID.TID 0000.0001) %MON surfExpan_theta_mean         =   1.0245529971873E-13
(PID.TID 0000.0001) %MON surfExpan_salt_mean          =   8.6381975098881E-21
(PID.TID 0000.0001) // =======================================================
(PID.TID 0000.0001) // End MONITOR dynamic field statistics
(PID.TID 0000.0001) // =======================================================
(PID.TID 0000.0001) // =======================================================
(PID.TID 0000.0001) // Begin OBCS MONITOR field statistics
(PID.TID 0000.0001) // =======================================================
(PID.TID 0000.0001) %MON obc_S_vVel_max               =   6.4914030883620E-02
(PID.TID 0000.0001) %MON obc_S_vVel_min               =  -4.0210523881949E-04
(PID.TID 0000.0001) %MON obc_S_vVel_mean              =   1.3764359368290E-19
(PID.TID 0000.0001) %MON obc_S_vVel_sd                =   2.9298177821015E-03
(PID.TID 0000.0001) %MON obc_S_vVel_Int               =   2.3371882207357E-10
(PID.TID 0000.0001) // =======================================================
(PID.TID 0000.0001) // End OBCS MONITOR field statistics
(PID.TID 0000.0001) // =======================================================
(PID.TID 0000.0001) %CHECKPOINT      1200 ckptB
(PID.TID 0000.0001)   Seconds in section "ALL                    [THE_MODEL_MAIN]":
(PID.TID 0000.0001)           User time:   1150.5568438041955
(PID.TID 0000.0001)         System time:   15.326897091232240
(PID.TID 0000.0001)     Wall clock time:   1182.7782850265503
(PID.TID 0000.0001)          No. starts:           1
(PID.TID 0000.0001)           No. stops:           1
(PID.TID 0000.0001)   Seconds in section "INITIALISE_FIXED       [THE_MODEL_MAIN]":
(PID.TID 0000.0001)           User time:   13.988540418446064
(PID.TID 0000.0001)         System time:  0.18264999985694885
(PID.TID 0000.0001)     Wall clock time:   14.220017910003662
(PID.TID 0000.0001)          No. starts:           1
(PID.TID 0000.0001)           No. stops:           1
(PID.TID 0000.0001)   Seconds in section "THE_MAIN_LOOP          [THE_MODEL_MAIN]":
(PID.TID 0000.0001)           User time:   1136.1046705245972
(PID.TID 0000.0001)         System time:   15.109822988510132
(PID.TID 0000.0001)     Wall clock time:   1168.0219640731812
(PID.TID 0000.0001)          No. starts:           1
(PID.TID 0000.0001)           No. stops:           1
(PID.TID 0000.0001)   Seconds in section "INITIALISE_VARIA    [THE_MAIN_LOOP]":
(PID.TID 0000.0001)           User time:   16.003869056701660
(PID.TID 0000.0001)         System time:  0.22768199443817139
(PID.TID 0000.0001)     Wall clock time:   16.299510955810547
(PID.TID 0000.0001)          No. starts:           1
(PID.TID 0000.0001)           No. stops:           1
(PID.TID 0000.0001)   Seconds in section "MAIN LOOP           [THE_MAIN_LOOP]":
(PID.TID 0000.0001)           User time:   1120.1007957458496
(PID.TID 0000.0001)         System time:   14.882136970758438
(PID.TID 0000.0001)     Wall clock time:   1151.7224428653717
(PID.TID 0000.0001)          No. starts:           1
(PID.TID 0000.0001)           No. stops:           1
(PID.TID 0000.0001)   Seconds in section "MAIN_DO_LOOP        [THE_MAIN_LOOP]":
(PID.TID 0000.0001)           User time:   1120.0975437164307
(PID.TID 0000.0001)         System time:   14.881955116987228
(PID.TID 0000.0001)     Wall clock time:   1151.7188355922699
(PID.TID 0000.0001)          No. starts:        1200
(PID.TID 0000.0001)           No. stops:        1200
(PID.TID 0000.0001)   Seconds in section "FORWARD_STEP        [MAIN_DO_LOOP]":
(PID.TID 0000.0001)           User time:   1120.0910949707031
(PID.TID 0000.0001)         System time:   14.881615161895752
(PID.TID 0000.0001)     Wall clock time:   1151.7114167213440
(PID.TID 0000.0001)          No. starts:        1200
(PID.TID 0000.0001)           No. stops:        1200
(PID.TID 0000.0001)   Seconds in section "LOAD_FIELDS_DRIVER  [FORWARD_STEP]":
(PID.TID 0000.0001)           User time:  0.23616027832031250
(PID.TID 0000.0001)         System time:   3.2782435417175293E-002
(PID.TID 0000.0001)     Wall clock time:  0.35462236404418945
(PID.TID 0000.0001)          No. starts:        1200
(PID.TID 0000.0001)           No. stops:        1200
(PID.TID 0000.0001)   Seconds in section "EXTERNAL_FLDS_LOAD [LOAD_FLDS_DRIVER]":
(PID.TID 0000.0001)           User time:  0.22880554199218750
(PID.TID 0000.0001)         System time:   3.1752735376358032E-002
(PID.TID 0000.0001)     Wall clock time:  0.34719491004943848
(PID.TID 0000.0001)          No. starts:        1200
(PID.TID 0000.0001)           No. stops:        1200
(PID.TID 0000.0001)   Seconds in section "DO_ATMOSPHERIC_PHYS [FORWARD_STEP]":
(PID.TID 0000.0001)           User time:   2.9735565185546875E-003
(PID.TID 0000.0001)         System time:   2.0551681518554688E-004
(PID.TID 0000.0001)     Wall clock time:   3.7171840667724609E-003
(PID.TID 0000.0001)          No. starts:        1200
(PID.TID 0000.0001)           No. stops:        1200
(PID.TID 0000.0001)   Seconds in section "DO_OCEANIC_PHYS     [FORWARD_STEP]":
(PID.TID 0000.0001)           User time:   16.671810150146484
(PID.TID 0000.0001)         System time:  0.13112199306488037
(PID.TID 0000.0001)     Wall clock time:   17.016086578369141
(PID.TID 0000.0001)          No. starts:        1200
(PID.TID 0000.0001)           No. stops:        1200
(PID.TID 0000.0001)   Seconds in section "THERMODYNAMICS      [FORWARD_STEP]":
(PID.TID 0000.0001)           User time:   142.65805816650391
(PID.TID 0000.0001)         System time:  0.95374229550361633
(PID.TID 0000.0001)     Wall clock time:   145.33765769004822
(PID.TID 0000.0001)          No. starts:        1200
(PID.TID 0000.0001)           No. stops:        1200
(PID.TID 0000.0001)   Seconds in section "DYNAMICS            [FORWARD_STEP]":
(PID.TID 0000.0001)           User time:   148.42717361450195
(PID.TID 0000.0001)         System time:   1.0270616114139557
(PID.TID 0000.0001)     Wall clock time:   151.21479868888855
(PID.TID 0000.0001)          No. starts:        1200
(PID.TID 0000.0001)           No. stops:        1200
(PID.TID 0000.0001)   Seconds in section "SOLVE_FOR_PRESSURE  [FORWARD_STEP]":
(PID.TID 0000.0001)           User time:   20.534807205200195
(PID.TID 0000.0001)         System time:  0.14410477876663208
(PID.TID 0000.0001)     Wall clock time:   20.968605995178223
(PID.TID 0000.0001)          No. starts:        1200
(PID.TID 0000.0001)           No. stops:        1200
(PID.TID 0000.0001)   Seconds in section "MOM_CORRECTION_STEP [FORWARD_STEP]":
(PID.TID 0000.0001)           User time:   5.5714359283447266
(PID.TID 0000.0001)         System time:   3.8336187601089478E-002
(PID.TID 0000.0001)     Wall clock time:   5.6782348155975342
(PID.TID 0000.0001)          No. starts:        1200
(PID.TID 0000.0001)           No. stops:        1200
(PID.TID 0000.0001)   Seconds in section "INTEGR_CONTINUITY   [FORWARD_STEP]":
(PID.TID 0000.0001)           User time:   8.8173751831054688
(PID.TID 0000.0001)         System time:   4.9962043762207031E-002
(PID.TID 0000.0001)     Wall clock time:   8.9582517147064209
(PID.TID 0000.0001)          No. starts:        1200
(PID.TID 0000.0001)           No. stops:        1200
(PID.TID 0000.0001)   Seconds in section "TRC_CORRECTION_STEP [FORWARD_STEP]":
(PID.TID 0000.0001)           User time:   4.1065216064453125E-003
(PID.TID 0000.0001)         System time:   2.3362040519714355E-004
(PID.TID 0000.0001)     Wall clock time:   4.2695999145507812E-003
(PID.TID 0000.0001)          No. starts:        1200
(PID.TID 0000.0001)           No. stops:        1200
(PID.TID 0000.0001)   Seconds in section "BLOCKING_EXCHANGES  [FORWARD_STEP]":
(PID.TID 0000.0001)           User time:   29.600330352783203
(PID.TID 0000.0001)         System time:  0.19148468971252441
(PID.TID 0000.0001)     Wall clock time:   30.127748727798462
(PID.TID 0000.0001)          No. starts:        1200
(PID.TID 0000.0001)           No. stops:        1200
(PID.TID 0000.0001)   Seconds in section "MONITOR             [FORWARD_STEP]":
(PID.TID 0000.0001)           User time:   4.6656818389892578
(PID.TID 0000.0001)         System time:   3.4972250461578369E-002
(PID.TID 0000.0001)     Wall clock time:   4.7643015384674072
(PID.TID 0000.0001)          No. starts:        1200
(PID.TID 0000.0001)           No. stops:        1200
(PID.TID 0000.0001)   Seconds in section "DO_THE_MODEL_IO     [FORWARD_STEP]":
(PID.TID 0000.0001)           User time:   742.73512458801270
(PID.TID 0000.0001)         System time:   11.723519086837769
(PID.TID 0000.0001)     Wall clock time:   766.38694906234741
(PID.TID 0000.0001)          No. starts:        1200
(PID.TID 0000.0001)           No. stops:        1200
(PID.TID 0000.0001)   Seconds in section "DO_WRITE_PICKUP     [FORWARD_STEP]":
(PID.TID 0000.0001)           User time:  0.11220741271972656
(PID.TID 0000.0001)         System time:  0.53463715314865112
(PID.TID 0000.0001)     Wall clock time:  0.84295964241027832
(PID.TID 0000.0001)          No. starts:        1200
(PID.TID 0000.0001)           No. stops:        1200
(PID.TID 0000.0001) // ======================================================
(PID.TID 0000.0001) // Tile <-> Tile communication statistics
(PID.TID 0000.0001) // ======================================================
(PID.TID 0000.0001) // o Tile number: 000001
(PID.TID 0000.0001) //         No. X exchanges =              0
(PID.TID 0000.0001) //            Max. X spins =              0
(PID.TID 0000.0001) //            Min. X spins =     1000000000
(PID.TID 0000.0001) //          Total. X spins =              0
(PID.TID 0000.0001) //            Avg. X spins =       0.00E+00
(PID.TID 0000.0001) //         No. Y exchanges =              0
(PID.TID 0000.0001) //            Max. Y spins =              0
(PID.TID 0000.0001) //            Min. Y spins =     1000000000
(PID.TID 0000.0001) //          Total. Y spins =              0
(PID.TID 0000.0001) //            Avg. Y spins =       0.00E+00
(PID.TID 0000.0001) // o Tile number: 000002
(PID.TID 0000.0001) //         No. X exchanges =              0
(PID.TID 0000.0001) //            Max. X spins =              0
(PID.TID 0000.0001) //            Min. X spins =     1000000000
(PID.TID 0000.0001) //          Total. X spins =              0
(PID.TID 0000.0001) //            Avg. X spins =       0.00E+00
(PID.TID 0000.0001) //         No. Y exchanges =              0
(PID.TID 0000.0001) //            Max. Y spins =              0
(PID.TID 0000.0001) //            Min. Y spins =     1000000000
(PID.TID 0000.0001) //          Total. Y spins =              0
(PID.TID 0000.0001) //            Avg. Y spins =       0.00E+00
(PID.TID 0000.0001) // o Tile number: 000003
(PID.TID 0000.0001) //         No. X exchanges =              0
(PID.TID 0000.0001) //            Max. X spins =              0
(PID.TID 0000.0001) //            Min. X spins =     1000000000
(PID.TID 0000.0001) //          Total. X spins =              0
(PID.TID 0000.0001) //            Avg. X spins =       0.00E+00
(PID.TID 0000.0001) //         No. Y exchanges =              0
(PID.TID 0000.0001) //            Max. Y spins =              0
(PID.TID 0000.0001) //            Min. Y spins =     1000000000
(PID.TID 0000.0001) //          Total. Y spins =              0
(PID.TID 0000.0001) //            Avg. Y spins =       0.00E+00
(PID.TID 0000.0001) // o Tile number: 000004
(PID.TID 0000.0001) //         No. X exchanges =              0
(PID.TID 0000.0001) //            Max. X spins =              0
(PID.TID 0000.0001) //            Min. X spins =     1000000000
(PID.TID 0000.0001) //          Total. X spins =              0
(PID.TID 0000.0001) //            Avg. X spins =       0.00E+00
(PID.TID 0000.0001) //         No. Y exchanges =              0
(PID.TID 0000.0001) //            Max. Y spins =              0
(PID.TID 0000.0001) //            Min. Y spins =     1000000000
(PID.TID 0000.0001) //          Total. Y spins =              0
(PID.TID 0000.0001) //            Avg. Y spins =       0.00E+00
(PID.TID 0000.0001) // o Tile number: 000005
(PID.TID 0000.0001) //         No. X exchanges =              0
(PID.TID 0000.0001) //            Max. X spins =              0
(PID.TID 0000.0001) //            Min. X spins =     1000000000
(PID.TID 0000.0001) //          Total. X spins =              0
(PID.TID 0000.0001) //            Avg. X spins =       0.00E+00
(PID.TID 0000.0001) //         No. Y exchanges =              0
(PID.TID 0000.0001) //            Max. Y spins =              0
(PID.TID 0000.0001) //            Min. Y spins =     1000000000
(PID.TID 0000.0001) //          Total. Y spins =              0
(PID.TID 0000.0001) //            Avg. Y spins =       0.00E+00
(PID.TID 0000.0001) // o Tile number: 000006
(PID.TID 0000.0001) //         No. X exchanges =              0
(PID.TID 0000.0001) //            Max. X spins =              0
(PID.TID 0000.0001) //            Min. X spins =     1000000000
(PID.TID 0000.0001) //          Total. X spins =              0
(PID.TID 0000.0001) //            Avg. X spins =       0.00E+00
(PID.TID 0000.0001) //         No. Y exchanges =              0
(PID.TID 0000.0001) //            Max. Y spins =              0
(PID.TID 0000.0001) //            Min. Y spins =     1000000000
(PID.TID 0000.0001) //          Total. Y spins =              0
(PID.TID 0000.0001) //            Avg. Y spins =       0.00E+00
(PID.TID 0000.0001) // o Tile number: 000007
(PID.TID 0000.0001) //         No. X exchanges =              0
(PID.TID 0000.0001) //            Max. X spins =              0
(PID.TID 0000.0001) //            Min. X spins =     1000000000
(PID.TID 0000.0001) //          Total. X spins =              0
(PID.TID 0000.0001) //            Avg. X spins =       0.00E+00
(PID.TID 0000.0001) //         No. Y exchanges =              0
(PID.TID 0000.0001) //            Max. Y spins =              0
(PID.TID 0000.0001) //            Min. Y spins =     1000000000
(PID.TID 0000.0001) //          Total. Y spins =              0
(PID.TID 0000.0001) //            Avg. Y spins =       0.00E+00
(PID.TID 0000.0001) // o Tile number: 000008
(PID.TID 0000.0001) //         No. X exchanges =              0
(PID.TID 0000.0001) //            Max. X spins =              0
(PID.TID 0000.0001) //            Min. X spins =     1000000000
(PID.TID 0000.0001) //          Total. X spins =              0
(PID.TID 0000.0001) //            Avg. X spins =       0.00E+00
(PID.TID 0000.0001) //         No. Y exchanges =              0
(PID.TID 0000.0001) //            Max. Y spins =              0
(PID.TID 0000.0001) //            Min. Y spins =     1000000000
(PID.TID 0000.0001) //          Total. Y spins =              0
(PID.TID 0000.0001) //            Avg. Y spins =       0.00E+00
(PID.TID 0000.0001) // o Tile number: 000009
(PID.TID 0000.0001) //         No. X exchanges =              0
(PID.TID 0000.0001) //            Max. X spins =              0
(PID.TID 0000.0001) //            Min. X spins =     1000000000
(PID.TID 0000.0001) //          Total. X spins =              0
(PID.TID 0000.0001) //            Avg. X spins =       0.00E+00
(PID.TID 0000.0001) //         No. Y exchanges =              0
(PID.TID 0000.0001) //            Max. Y spins =              0
(PID.TID 0000.0001) //            Min. Y spins =     1000000000
(PID.TID 0000.0001) //          Total. Y spins =              0
(PID.TID 0000.0001) //            Avg. Y spins =       0.00E+00
(PID.TID 0000.0001) // o Tile number: 000010
(PID.TID 0000.0001) //         No. X exchanges =              0
(PID.TID 0000.0001) //            Max. X spins =              0
(PID.TID 0000.0001) //            Min. X spins =     1000000000
(PID.TID 0000.0001) //          Total. X spins =              0
(PID.TID 0000.0001) //            Avg. X spins =       0.00E+00
(PID.TID 0000.0001) //         No. Y exchanges =              0
(PID.TID 0000.0001) //            Max. Y spins =              0
(PID.TID 0000.0001) //            Min. Y spins =     1000000000
(PID.TID 0000.0001) //          Total. Y spins =              0
(PID.TID 0000.0001) //            Avg. Y spins =       0.00E+00
(PID.TID 0000.0001) // o Tile number: 000011
(PID.TID 0000.0001) //         No. X exchanges =              0
(PID.TID 0000.0001) //            Max. X spins =              0
(PID.TID 0000.0001) //            Min. X spins =     1000000000
(PID.TID 0000.0001) //          Total. X spins =              0
(PID.TID 0000.0001) //            Avg. X spins =       0.00E+00
(PID.TID 0000.0001) //         No. Y exchanges =              0
(PID.TID 0000.0001) //            Max. Y spins =              0
(PID.TID 0000.0001) //            Min. Y spins =     1000000000
(PID.TID 0000.0001) //          Total. Y spins =              0
(PID.TID 0000.0001) //            Avg. Y spins =       0.00E+00
(PID.TID 0000.0001) // o Tile number: 000012
(PID.TID 0000.0001) //         No. X exchanges =              0
(PID.TID 0000.0001) //            Max. X spins =              0
(PID.TID 0000.0001) //            Min. X spins =     1000000000
(PID.TID 0000.0001) //          Total. X spins =              0
(PID.TID 0000.0001) //            Avg. X spins =       0.00E+00
(PID.TID 0000.0001) //         No. Y exchanges =              0
(PID.TID 0000.0001) //            Max. Y spins =              0
(PID.TID 0000.0001) //            Min. Y spins =     1000000000
(PID.TID 0000.0001) //          Total. Y spins =              0
(PID.TID 0000.0001) //            Avg. Y spins =       0.00E+00
(PID.TID 0000.0001) // o Tile number: 000013
(PID.TID 0000.0001) //         No. X exchanges =              0
(PID.TID 0000.0001) //            Max. X spins =              0
(PID.TID 0000.0001) //            Min. X spins =     1000000000
(PID.TID 0000.0001) //          Total. X spins =              0
(PID.TID 0000.0001) //            Avg. X spins =       0.00E+00
(PID.TID 0000.0001) //         No. Y exchanges =              0
(PID.TID 0000.0001) //            Max. Y spins =              0
(PID.TID 0000.0001) //            Min. Y spins =     1000000000
(PID.TID 0000.0001) //          Total. Y spins =              0
(PID.TID 0000.0001) //            Avg. Y spins =       0.00E+00
(PID.TID 0000.0001) // o Tile number: 000014
(PID.TID 0000.0001) //         No. X exchanges =              0
(PID.TID 0000.0001) //            Max. X spins =              0
(PID.TID 0000.0001) //            Min. X spins =     1000000000
(PID.TID 0000.0001) //          Total. X spins =              0
(PID.TID 0000.0001) //            Avg. X spins =       0.00E+00
(PID.TID 0000.0001) //         No. Y exchanges =              0
(PID.TID 0000.0001) //            Max. Y spins =              0
(PID.TID 0000.0001) //            Min. Y spins =     1000000000
(PID.TID 0000.0001) //          Total. Y spins =              0
(PID.TID 0000.0001) //            Avg. Y spins =       0.00E+00
(PID.TID 0000.0001) // o Tile number: 000015
(PID.TID 0000.0001) //         No. X exchanges =              0
(PID.TID 0000.0001) //            Max. X spins =              0
(PID.TID 0000.0001) //            Min. X spins =     1000000000
(PID.TID 0000.0001) //          Total. X spins =              0
(PID.TID 0000.0001) //            Avg. X spins =       0.00E+00
(PID.TID 0000.0001) //         No. Y exchanges =              0
(PID.TID 0000.0001) //            Max. Y spins =              0
(PID.TID 0000.0001) //            Min. Y spins =     1000000000
(PID.TID 0000.0001) //          Total. Y spins =              0
(PID.TID 0000.0001) //            Avg. Y spins =       0.00E+00
(PID.TID 0000.0001) // o Tile number: 000016
(PID.TID 0000.0001) //         No. X exchanges =              0
(PID.TID 0000.0001) //            Max. X spins =              0
(PID.TID 0000.0001) //            Min. X spins =     1000000000
(PID.TID 0000.0001) //          Total. X spins =              0
(PID.TID 0000.0001) //            Avg. X spins =       0.00E+00
(PID.TID 0000.0001) //         No. Y exchanges =              0
(PID.TID 0000.0001) //            Max. Y spins =              0
(PID.TID 0000.0001) //            Min. Y spins =     1000000000
(PID.TID 0000.0001) //          Total. Y spins =              0
(PID.TID 0000.0001) //            Avg. Y spins =       0.00E+00
(PID.TID 0000.0001) // o Tile number: 000017
(PID.TID 0000.0001) //         No. X exchanges =              0
(PID.TID 0000.0001) //            Max. X spins =              0
(PID.TID 0000.0001) //            Min. X spins =     1000000000
(PID.TID 0000.0001) //          Total. X spins =              0
(PID.TID 0000.0001) //            Avg. X spins =       0.00E+00
(PID.TID 0000.0001) //         No. Y exchanges =              0
(PID.TID 0000.0001) //            Max. Y spins =              0
(PID.TID 0000.0001) //            Min. Y spins =     1000000000
(PID.TID 0000.0001) //          Total. Y spins =              0
(PID.TID 0000.0001) //            Avg. Y spins =       0.00E+00
(PID.TID 0000.0001) // o Tile number: 000018
(PID.TID 0000.0001) //         No. X exchanges =              0
(PID.TID 0000.0001) //            Max. X spins =              0
(PID.TID 0000.0001) //            Min. X spins =     1000000000
(PID.TID 0000.0001) //          Total. X spins =              0
(PID.TID 0000.0001) //            Avg. X spins =       0.00E+00
(PID.TID 0000.0001) //         No. Y exchanges =              0
(PID.TID 0000.0001) //            Max. Y spins =              0
(PID.TID 0000.0001) //            Min. Y spins =     1000000000
(PID.TID 0000.0001) //          Total. Y spins =              0
(PID.TID 0000.0001) //            Avg. Y spins =       0.00E+00
(PID.TID 0000.0001) // o Tile number: 000019
(PID.TID 0000.0001) //         No. X exchanges =              0
(PID.TID 0000.0001) //            Max. X spins =              0
(PID.TID 0000.0001) //            Min. X spins =     1000000000
(PID.TID 0000.0001) //          Total. X spins =              0
(PID.TID 0000.0001) //            Avg. X spins =       0.00E+00
(PID.TID 0000.0001) //         No. Y exchanges =              0
(PID.TID 0000.0001) //            Max. Y spins =              0
(PID.TID 0000.0001) //            Min. Y spins =     1000000000
(PID.TID 0000.0001) //          Total. Y spins =              0
(PID.TID 0000.0001) //            Avg. Y spins =       0.00E+00
(PID.TID 0000.0001) // o Tile number: 000020
(PID.TID 0000.0001) //         No. X exchanges =              0
(PID.TID 0000.0001) //            Max. X spins =              0
(PID.TID 0000.0001) //            Min. X spins =     1000000000
(PID.TID 0000.0001) //          Total. X spins =              0
(PID.TID 0000.0001) //            Avg. X spins =       0.00E+00
(PID.TID 0000.0001) //         No. Y exchanges =              0
(PID.TID 0000.0001) //            Max. Y spins =              0
(PID.TID 0000.0001) //            Min. Y spins =     1000000000
(PID.TID 0000.0001) //          Total. Y spins =              0
(PID.TID 0000.0001) //            Avg. Y spins =       0.00E+00
(PID.TID 0000.0001) // o Tile number: 000021
(PID.TID 0000.0001) //         No. X exchanges =              0
(PID.TID 0000.0001) //            Max. X spins =              0
(PID.TID 0000.0001) //            Min. X spins =     1000000000
(PID.TID 0000.0001) //          Total. X spins =              0
(PID.TID 0000.0001) //            Avg. X spins =       0.00E+00
(PID.TID 0000.0001) //         No. Y exchanges =              0
(PID.TID 0000.0001) //            Max. Y spins =              0
(PID.TID 0000.0001) //            Min. Y spins =     1000000000
(PID.TID 0000.0001) //          Total. Y spins =              0
(PID.TID 0000.0001) //            Avg. Y spins =       0.00E+00
(PID.TID 0000.0001) // o Tile number: 000022
(PID.TID 0000.0001) //         No. X exchanges =              0
(PID.TID 0000.0001) //            Max. X spins =              0
(PID.TID 0000.0001) //            Min. X spins =     1000000000
(PID.TID 0000.0001) //          Total. X spins =              0
(PID.TID 0000.0001) //            Avg. X spins =       0.00E+00
(PID.TID 0000.0001) //         No. Y exchanges =              0
(PID.TID 0000.0001) //            Max. Y spins =              0
(PID.TID 0000.0001) //            Min. Y spins =     1000000000
(PID.TID 0000.0001) //          Total. Y spins =              0
(PID.TID 0000.0001) //            Avg. Y spins =       0.00E+00
(PID.TID 0000.0001) // o Tile number: 000023
(PID.TID 0000.0001) //         No. X exchanges =              0
(PID.TID 0000.0001) //            Max. X spins =              0
(PID.TID 0000.0001) //            Min. X spins =     1000000000
(PID.TID 0000.0001) //          Total. X spins =              0
(PID.TID 0000.0001) //            Avg. X spins =       0.00E+00
(PID.TID 0000.0001) //         No. Y exchanges =              0
(PID.TID 0000.0001) //            Max. Y spins =              0
(PID.TID 0000.0001) //            Min. Y spins =     1000000000
(PID.TID 0000.0001) //          Total. Y spins =              0
(PID.TID 0000.0001) //            Avg. Y spins =       0.00E+00
(PID.TID 0000.0001) // o Tile number: 000024
(PID.TID 0000.0001) //         No. X exchanges =              0
(PID.TID 0000.0001) //            Max. X spins =              0
(PID.TID 0000.0001) //            Min. X spins =     1000000000
(PID.TID 0000.0001) //          Total. X spins =              0
(PID.TID 0000.0001) //            Avg. X spins =       0.00E+00
(PID.TID 0000.0001) //         No. Y exchanges =              0
(PID.TID 0000.0001) //            Max. Y spins =              0
(PID.TID 0000.0001) //            Min. Y spins =     1000000000
(PID.TID 0000.0001) //          Total. Y spins =              0
(PID.TID 0000.0001) //            Avg. Y spins =       0.00E+00
(PID.TID 0000.0001) // o Tile number: 000025
(PID.TID 0000.0001) //         No. X exchanges =              0
(PID.TID 0000.0001) //            Max. X spins =              0
(PID.TID 0000.0001) //            Min. X spins =     1000000000
(PID.TID 0000.0001) //          Total. X spins =              0
(PID.TID 0000.0001) //            Avg. X spins =       0.00E+00
(PID.TID 0000.0001) //         No. Y exchanges =              0
(PID.TID 0000.0001) //            Max. Y spins =              0
(PID.TID 0000.0001) //            Min. Y spins =     1000000000
(PID.TID 0000.0001) //          Total. Y spins =              0
(PID.TID 0000.0001) //            Avg. Y spins =       0.00E+00
(PID.TID 0000.0001) // o Tile number: 000026
(PID.TID 0000.0001) //         No. X exchanges =              0
(PID.TID 0000.0001) //            Max. X spins =              0
(PID.TID 0000.0001) //            Min. X spins =     1000000000
(PID.TID 0000.0001) //          Total. X spins =              0
(PID.TID 0000.0001) //            Avg. X spins =       0.00E+00
(PID.TID 0000.0001) //         No. Y exchanges =              0
(PID.TID 0000.0001) //            Max. Y spins =              0
(PID.TID 0000.0001) //            Min. Y spins =     1000000000
(PID.TID 0000.0001) //          Total. Y spins =              0
(PID.TID 0000.0001) //            Avg. Y spins =       0.00E+00
(PID.TID 0000.0001) // o Tile number: 000027
(PID.TID 0000.0001) //         No. X exchanges =              0
(PID.TID 0000.0001) //            Max. X spins =              0
(PID.TID 0000.0001) //            Min. X spins =     1000000000
(PID.TID 0000.0001) //          Total. X spins =              0
(PID.TID 0000.0001) //            Avg. X spins =       0.00E+00
(PID.TID 0000.0001) //         No. Y exchanges =              0
(PID.TID 0000.0001) //            Max. Y spins =              0
(PID.TID 0000.0001) //            Min. Y spins =     1000000000
(PID.TID 0000.0001) //          Total. Y spins =              0
(PID.TID 0000.0001) //            Avg. Y spins =       0.00E+00
(PID.TID 0000.0001) // o Tile number: 000028
(PID.TID 0000.0001) //         No. X exchanges =              0
(PID.TID 0000.0001) //            Max. X spins =              0
(PID.TID 0000.0001) //            Min. X spins =     1000000000
(PID.TID 0000.0001) //          Total. X spins =              0
(PID.TID 0000.0001) //            Avg. X spins =       0.00E+00
(PID.TID 0000.0001) //         No. Y exchanges =              0
(PID.TID 0000.0001) //            Max. Y spins =              0
(PID.TID 0000.0001) //            Min. Y spins =     1000000000
(PID.TID 0000.0001) //          Total. Y spins =              0
(PID.TID 0000.0001) //            Avg. Y spins =       0.00E+00
(PID.TID 0000.0001) // o Tile number: 000029
(PID.TID 0000.0001) //         No. X exchanges =              0
(PID.TID 0000.0001) //            Max. X spins =              0
(PID.TID 0000.0001) //            Min. X spins =     1000000000
(PID.TID 0000.0001) //          Total. X spins =              0
(PID.TID 0000.0001) //            Avg. X spins =       0.00E+00
(PID.TID 0000.0001) //         No. Y exchanges =              0
(PID.TID 0000.0001) //            Max. Y spins =              0
(PID.TID 0000.0001) //            Min. Y spins =     1000000000
(PID.TID 0000.0001) //          Total. Y spins =              0
(PID.TID 0000.0001) //            Avg. Y spins =       0.00E+00
(PID.TID 0000.0001) // o Tile number: 000030
(PID.TID 0000.0001) //         No. X exchanges =              0
(PID.TID 0000.0001) //            Max. X spins =              0
(PID.TID 0000.0001) //            Min. X spins =     1000000000
(PID.TID 0000.0001) //          Total. X spins =              0
(PID.TID 0000.0001) //            Avg. X spins =       0.00E+00
(PID.TID 0000.0001) //         No. Y exchanges =              0
(PID.TID 0000.0001) //            Max. Y spins =              0
(PID.TID 0000.0001) //            Min. Y spins =     1000000000
(PID.TID 0000.0001) //          Total. Y spins =              0
(PID.TID 0000.0001) //            Avg. Y spins =       0.00E+00
(PID.TID 0000.0001) // o Tile number: 000031
(PID.TID 0000.0001) //         No. X exchanges =              0
(PID.TID 0000.0001) //            Max. X spins =              0
(PID.TID 0000.0001) //            Min. X spins =     1000000000
(PID.TID 0000.0001) //          Total. X spins =              0
(PID.TID 0000.0001) //            Avg. X spins =       0.00E+00
(PID.TID 0000.0001) //         No. Y exchanges =              0
(PID.TID 0000.0001) //            Max. Y spins =              0
(PID.TID 0000.0001) //            Min. Y spins =     1000000000
(PID.TID 0000.0001) //          Total. Y spins =              0
(PID.TID 0000.0001) //            Avg. Y spins =       0.00E+00
(PID.TID 0000.0001) // o Tile number: 000032
(PID.TID 0000.0001) //         No. X exchanges =              0
(PID.TID 0000.0001) //            Max. X spins =              0
(PID.TID 0000.0001) //            Min. X spins =     1000000000
(PID.TID 0000.0001) //          Total. X spins =              0
(PID.TID 0000.0001) //            Avg. X spins =       0.00E+00
(PID.TID 0000.0001) //         No. Y exchanges =              0
(PID.TID 0000.0001) //            Max. Y spins =              0
(PID.TID 0000.0001) //            Min. Y spins =     1000000000
(PID.TID 0000.0001) //          Total. Y spins =              0
(PID.TID 0000.0001) //            Avg. Y spins =       0.00E+00
(PID.TID 0000.0001) // o Tile number: 000033
(PID.TID 0000.0001) //         No. X exchanges =              0
(PID.TID 0000.0001) //            Max. X spins =              0
(PID.TID 0000.0001) //            Min. X spins =     1000000000
(PID.TID 0000.0001) //          Total. X spins =              0
(PID.TID 0000.0001) //            Avg. X spins =       0.00E+00
(PID.TID 0000.0001) //         No. Y exchanges =              0
(PID.TID 0000.0001) //            Max. Y spins =              0
(PID.TID 0000.0001) //            Min. Y spins =     1000000000
(PID.TID 0000.0001) //          Total. Y spins =              0
(PID.TID 0000.0001) //            Avg. Y spins =       0.00E+00
(PID.TID 0000.0001) // o Tile number: 000034
(PID.TID 0000.0001) //         No. X exchanges =              0
(PID.TID 0000.0001) //            Max. X spins =              0
(PID.TID 0000.0001) //            Min. X spins =     1000000000
(PID.TID 0000.0001) //          Total. X spins =              0
(PID.TID 0000.0001) //            Avg. X spins =       0.00E+00
(PID.TID 0000.0001) //         No. Y exchanges =              0
(PID.TID 0000.0001) //            Max. Y spins =              0
(PID.TID 0000.0001) //            Min. Y spins =     1000000000
(PID.TID 0000.0001) //          Total. Y spins =              0
(PID.TID 0000.0001) //            Avg. Y spins =       0.00E+00
(PID.TID 0000.0001) // o Tile number: 000035
(PID.TID 0000.0001) //         No. X exchanges =              0
(PID.TID 0000.0001) //            Max. X spins =              0
(PID.TID 0000.0001) //            Min. X spins =     1000000000
(PID.TID 0000.0001) //          Total. X spins =              0
(PID.TID 0000.0001) //            Avg. X spins =       0.00E+00
(PID.TID 0000.0001) //         No. Y exchanges =              0
(PID.TID 0000.0001) //            Max. Y spins =              0
(PID.TID 0000.0001) //            Min. Y spins =     1000000000
(PID.TID 0000.0001) //          Total. Y spins =              0
(PID.TID 0000.0001) //            Avg. Y spins =       0.00E+00
(PID.TID 0000.0001) // o Tile number: 000036
(PID.TID 0000.0001) //         No. X exchanges =              0
(PID.TID 0000.0001) //            Max. X spins =              0
(PID.TID 0000.0001) //            Min. X spins =     1000000000
(PID.TID 0000.0001) //          Total. X spins =              0
(PID.TID 0000.0001) //            Avg. X spins =       0.00E+00
(PID.TID 0000.0001) //         No. Y exchanges =              0
(PID.TID 0000.0001) //            Max. Y spins =              0
(PID.TID 0000.0001) //            Min. Y spins =     1000000000
(PID.TID 0000.0001) //          Total. Y spins =              0
(PID.TID 0000.0001) //            Avg. Y spins =       0.00E+00
(PID.TID 0000.0001) // o Tile number: 000037
(PID.TID 0000.0001) //         No. X exchanges =              0
(PID.TID 0000.0001) //            Max. X spins =              0
(PID.TID 0000.0001) //            Min. X spins =     1000000000
(PID.TID 0000.0001) //          Total. X spins =              0
(PID.TID 0000.0001) //            Avg. X spins =       0.00E+00
(PID.TID 0000.0001) //         No. Y exchanges =              0
(PID.TID 0000.0001) //            Max. Y spins =              0
(PID.TID 0000.0001) //            Min. Y spins =     1000000000
(PID.TID 0000.0001) //          Total. Y spins =              0
(PID.TID 0000.0001) //            Avg. Y spins =       0.00E+00
(PID.TID 0000.0001) // o Tile number: 000038
(PID.TID 0000.0001) //         No. X exchanges =              0
(PID.TID 0000.0001) //            Max. X spins =              0
(PID.TID 0000.0001) //            Min. X spins =     1000000000
(PID.TID 0000.0001) //          Total. X spins =              0
(PID.TID 0000.0001) //            Avg. X spins =       0.00E+00
(PID.TID 0000.0001) //         No. Y exchanges =              0
(PID.TID 0000.0001) //            Max. Y spins =              0
(PID.TID 0000.0001) //            Min. Y spins =     1000000000
(PID.TID 0000.0001) //          Total. Y spins =              0
(PID.TID 0000.0001) //            Avg. Y spins =       0.00E+00
(PID.TID 0000.0001) // o Tile number: 000039
(PID.TID 0000.0001) //         No. X exchanges =              0
(PID.TID 0000.0001) //            Max. X spins =              0
(PID.TID 0000.0001) //            Min. X spins =     1000000000
(PID.TID 0000.0001) //          Total. X spins =              0
(PID.TID 0000.0001) //            Avg. X spins =       0.00E+00
(PID.TID 0000.0001) //         No. Y exchanges =              0
(PID.TID 0000.0001) //            Max. Y spins =              0
(PID.TID 0000.0001) //            Min. Y spins =     1000000000
(PID.TID 0000.0001) //          Total. Y spins =              0
(PID.TID 0000.0001) //            Avg. Y spins =       0.00E+00
(PID.TID 0000.0001) // o Tile number: 000040
(PID.TID 0000.0001) //         No. X exchanges =              0
(PID.TID 0000.0001) //            Max. X spins =              0
(PID.TID 0000.0001) //            Min. X spins =     1000000000
(PID.TID 0000.0001) //          Total. X spins =              0
(PID.TID 0000.0001) //            Avg. X spins =       0.00E+00
(PID.TID 0000.0001) //         No. Y exchanges =              0
(PID.TID 0000.0001) //            Max. Y spins =              0
(PID.TID 0000.0001) //            Min. Y spins =     1000000000
(PID.TID 0000.0001) //          Total. Y spins =              0
(PID.TID 0000.0001) //            Avg. Y spins =       0.00E+00
(PID.TID 0000.0001) // o Tile number: 000041
(PID.TID 0000.0001) //         No. X exchanges =              0
(PID.TID 0000.0001) //            Max. X spins =              0
(PID.TID 0000.0001) //            Min. X spins =     1000000000
(PID.TID 0000.0001) //          Total. X spins =              0
(PID.TID 0000.0001) //            Avg. X spins =       0.00E+00
(PID.TID 0000.0001) //         No. Y exchanges =              0
(PID.TID 0000.0001) //            Max. Y spins =              0
(PID.TID 0000.0001) //            Min. Y spins =     1000000000
(PID.TID 0000.0001) //          Total. Y spins =              0
(PID.TID 0000.0001) //            Avg. Y spins =       0.00E+00
(PID.TID 0000.0001) // o Tile number: 000042
(PID.TID 0000.0001) //         No. X exchanges =              0
(PID.TID 0000.0001) //            Max. X spins =              0
(PID.TID 0000.0001) //            Min. X spins =     1000000000
(PID.TID 0000.0001) //          Total. X spins =              0
(PID.TID 0000.0001) //            Avg. X spins =       0.00E+00
(PID.TID 0000.0001) //         No. Y exchanges =              0
(PID.TID 0000.0001) //            Max. Y spins =              0
(PID.TID 0000.0001) //            Min. Y spins =     1000000000
(PID.TID 0000.0001) //          Total. Y spins =              0
(PID.TID 0000.0001) //            Avg. Y spins =       0.00E+00
(PID.TID 0000.0001) // o Tile number: 000043
(PID.TID 0000.0001) //         No. X exchanges =              0
(PID.TID 0000.0001) //            Max. X spins =              0
(PID.TID 0000.0001) //            Min. X spins =     1000000000
(PID.TID 0000.0001) //          Total. X spins =              0
(PID.TID 0000.0001) //            Avg. X spins =       0.00E+00
(PID.TID 0000.0001) //         No. Y exchanges =              0
(PID.TID 0000.0001) //            Max. Y spins =              0
(PID.TID 0000.0001) //            Min. Y spins =     1000000000
(PID.TID 0000.0001) //          Total. Y spins =              0
(PID.TID 0000.0001) //            Avg. Y spins =       0.00E+00
(PID.TID 0000.0001) // o Tile number: 000044
(PID.TID 0000.0001) //         No. X exchanges =              0
(PID.TID 0000.0001) //            Max. X spins =              0
(PID.TID 0000.0001) //            Min. X spins =     1000000000
(PID.TID 0000.0001) //          Total. X spins =              0
(PID.TID 0000.0001) //            Avg. X spins =       0.00E+00
(PID.TID 0000.0001) //         No. Y exchanges =              0
(PID.TID 0000.0001) //            Max. Y spins =              0
(PID.TID 0000.0001) //            Min. Y spins =     1000000000
(PID.TID 0000.0001) //          Total. Y spins =              0
(PID.TID 0000.0001) //            Avg. Y spins =       0.00E+00
(PID.TID 0000.0001) // o Tile number: 000045
(PID.TID 0000.0001) //         No. X exchanges =              0
(PID.TID 0000.0001) //            Max. X spins =              0
(PID.TID 0000.0001) //            Min. X spins =     1000000000
(PID.TID 0000.0001) //          Total. X spins =              0
(PID.TID 0000.0001) //            Avg. X spins =       0.00E+00
(PID.TID 0000.0001) //         No. Y exchanges =              0
(PID.TID 0000.0001) //            Max. Y spins =              0
(PID.TID 0000.0001) //            Min. Y spins =     1000000000
(PID.TID 0000.0001) //          Total. Y spins =              0
(PID.TID 0000.0001) //            Avg. Y spins =       0.00E+00
(PID.TID 0000.0001) // o Tile number: 000046
(PID.TID 0000.0001) //         No. X exchanges =              0
(PID.TID 0000.0001) //            Max. X spins =              0
(PID.TID 0000.0001) //            Min. X spins =     1000000000
(PID.TID 0000.0001) //          Total. X spins =              0
(PID.TID 0000.0001) //            Avg. X spins =       0.00E+00
(PID.TID 0000.0001) //         No. Y exchanges =              0
(PID.TID 0000.0001) //            Max. Y spins =              0
(PID.TID 0000.0001) //            Min. Y spins =     1000000000
(PID.TID 0000.0001) //          Total. Y spins =              0
(PID.TID 0000.0001) //            Avg. Y spins =       0.00E+00
(PID.TID 0000.0001) // o Tile number: 000047
(PID.TID 0000.0001) //         No. X exchanges =              0
(PID.TID 0000.0001) //            Max. X spins =              0
(PID.TID 0000.0001) //            Min. X spins =     1000000000
(PID.TID 0000.0001) //          Total. X spins =              0
(PID.TID 0000.0001) //            Avg. X spins =       0.00E+00
(PID.TID 0000.0001) //         No. Y exchanges =              0
(PID.TID 0000.0001) //            Max. Y spins =              0
(PID.TID 0000.0001) //            Min. Y spins =     1000000000
(PID.TID 0000.0001) //          Total. Y spins =              0
(PID.TID 0000.0001) //            Avg. Y spins =       0.00E+00
(PID.TID 0000.0001) // o Tile number: 000048
(PID.TID 0000.0001) //         No. X exchanges =              0
(PID.TID 0000.0001) //            Max. X spins =              0
(PID.TID 0000.0001) //            Min. X spins =     1000000000
(PID.TID 0000.0001) //          Total. X spins =              0
(PID.TID 0000.0001) //            Avg. X spins =       0.00E+00
(PID.TID 0000.0001) //         No. Y exchanges =              0
(PID.TID 0000.0001) //            Max. Y spins =              0
(PID.TID 0000.0001) //            Min. Y spins =     1000000000
(PID.TID 0000.0001) //          Total. Y spins =              0
(PID.TID 0000.0001) //            Avg. Y spins =       0.00E+00
(PID.TID 0000.0001) // o Tile number: 000049
(PID.TID 0000.0001) //         No. X exchanges =              0
(PID.TID 0000.0001) //            Max. X spins =              0
(PID.TID 0000.0001) //            Min. X spins =     1000000000
(PID.TID 0000.0001) //          Total. X spins =              0
(PID.TID 0000.0001) //            Avg. X spins =       0.00E+00
(PID.TID 0000.0001) //         No. Y exchanges =              0
(PID.TID 0000.0001) //            Max. Y spins =              0
(PID.TID 0000.0001) //            Min. Y spins =     1000000000
(PID.TID 0000.0001) //          Total. Y spins =              0
(PID.TID 0000.0001) //            Avg. Y spins =       0.00E+00
(PID.TID 0000.0001) // o Tile number: 000050
(PID.TID 0000.0001) //         No. X exchanges =              0
(PID.TID 0000.0001) //            Max. X spins =              0
(PID.TID 0000.0001) //            Min. X spins =     1000000000
(PID.TID 0000.0001) //          Total. X spins =              0
(PID.TID 0000.0001) //            Avg. X spins =       0.00E+00
(PID.TID 0000.0001) //         No. Y exchanges =              0
(PID.TID 0000.0001) //            Max. Y spins =              0
(PID.TID 0000.0001) //            Min. Y spins =     1000000000
(PID.TID 0000.0001) //          Total. Y spins =              0
(PID.TID 0000.0001) //            Avg. Y spins =       0.00E+00
(PID.TID 0000.0001) // o Tile number: 000051
(PID.TID 0000.0001) //         No. X exchanges =              0
(PID.TID 0000.0001) //            Max. X spins =              0
(PID.TID 0000.0001) //            Min. X spins =     1000000000
(PID.TID 0000.0001) //          Total. X spins =              0
(PID.TID 0000.0001) //            Avg. X spins =       0.00E+00
(PID.TID 0000.0001) //         No. Y exchanges =              0
(PID.TID 0000.0001) //            Max. Y spins =              0
(PID.TID 0000.0001) //            Min. Y spins =     1000000000
(PID.TID 0000.0001) //          Total. Y spins =              0
(PID.TID 0000.0001) //            Avg. Y spins =       0.00E+00
(PID.TID 0000.0001) // o Tile number: 000052
(PID.TID 0000.0001) //         No. X exchanges =              0
(PID.TID 0000.0001) //            Max. X spins =              0
(PID.TID 0000.0001) //            Min. X spins =     1000000000
(PID.TID 0000.0001) //          Total. X spins =              0
(PID.TID 0000.0001) //            Avg. X spins =       0.00E+00
(PID.TID 0000.0001) //         No. Y exchanges =              0
(PID.TID 0000.0001) //            Max. Y spins =              0
(PID.TID 0000.0001) //            Min. Y spins =     1000000000
(PID.TID 0000.0001) //          Total. Y spins =              0
(PID.TID 0000.0001) //            Avg. Y spins =       0.00E+00
(PID.TID 0000.0001) // o Tile number: 000053
(PID.TID 0000.0001) //         No. X exchanges =              0
(PID.TID 0000.0001) //            Max. X spins =              0
(PID.TID 0000.0001) //            Min. X spins =     1000000000
(PID.TID 0000.0001) //          Total. X spins =              0
(PID.TID 0000.0001) //            Avg. X spins =       0.00E+00
(PID.TID 0000.0001) //         No. Y exchanges =              0
(PID.TID 0000.0001) //            Max. Y spins =              0
(PID.TID 0000.0001) //            Min. Y spins =     1000000000
(PID.TID 0000.0001) //          Total. Y spins =              0
(PID.TID 0000.0001) //            Avg. Y spins =       0.00E+00
(PID.TID 0000.0001) // o Tile number: 000054
(PID.TID 0000.0001) //         No. X exchanges =              0
(PID.TID 0000.0001) //            Max. X spins =              0
(PID.TID 0000.0001) //            Min. X spins =     1000000000
(PID.TID 0000.0001) //          Total. X spins =              0
(PID.TID 0000.0001) //            Avg. X spins =       0.00E+00
(PID.TID 0000.0001) //         No. Y exchanges =              0
(PID.TID 0000.0001) //            Max. Y spins =              0
(PID.TID 0000.0001) //            Min. Y spins =     1000000000
(PID.TID 0000.0001) //          Total. Y spins =              0
(PID.TID 0000.0001) //            Avg. Y spins =       0.00E+00
(PID.TID 0000.0001) // o Tile number: 000055
(PID.TID 0000.0001) //         No. X exchanges =              0
(PID.TID 0000.0001) //            Max. X spins =              0
(PID.TID 0000.0001) //            Min. X spins =     1000000000
(PID.TID 0000.0001) //          Total. X spins =              0
(PID.TID 0000.0001) //            Avg. X spins =       0.00E+00
(PID.TID 0000.0001) //         No. Y exchanges =              0
(PID.TID 0000.0001) //            Max. Y spins =              0
(PID.TID 0000.0001) //            Min. Y spins =     1000000000
(PID.TID 0000.0001) //          Total. Y spins =              0
(PID.TID 0000.0001) //            Avg. Y spins =       0.00E+00
(PID.TID 0000.0001) // o Tile number: 000056
(PID.TID 0000.0001) //         No. X exchanges =              0
(PID.TID 0000.0001) //            Max. X spins =              0
(PID.TID 0000.0001) //            Min. X spins =     1000000000
(PID.TID 0000.0001) //          Total. X spins =              0
(PID.TID 0000.0001) //            Avg. X spins =       0.00E+00
(PID.TID 0000.0001) //         No. Y exchanges =              0
(PID.TID 0000.0001) //            Max. Y spins =              0
(PID.TID 0000.0001) //            Min. Y spins =     1000000000
(PID.TID 0000.0001) //          Total. Y spins =              0
(PID.TID 0000.0001) //            Avg. Y spins =       0.00E+00
(PID.TID 0000.0001) // o Tile number: 000057
(PID.TID 0000.0001) //         No. X exchanges =              0
(PID.TID 0000.0001) //            Max. X spins =              0
(PID.TID 0000.0001) //            Min. X spins =     1000000000
(PID.TID 0000.0001) //          Total. X spins =              0
(PID.TID 0000.0001) //            Avg. X spins =       0.00E+00
(PID.TID 0000.0001) //         No. Y exchanges =              0
(PID.TID 0000.0001) //            Max. Y spins =              0
(PID.TID 0000.0001) //            Min. Y spins =     1000000000
(PID.TID 0000.0001) //          Total. Y spins =              0
(PID.TID 0000.0001) //            Avg. Y spins =       0.00E+00
(PID.TID 0000.0001) // o Tile number: 000058
(PID.TID 0000.0001) //         No. X exchanges =              0
(PID.TID 0000.0001) //            Max. X spins =              0
(PID.TID 0000.0001) //            Min. X spins =     1000000000
(PID.TID 0000.0001) //          Total. X spins =              0
(PID.TID 0000.0001) //            Avg. X spins =       0.00E+00
(PID.TID 0000.0001) //         No. Y exchanges =              0
(PID.TID 0000.0001) //            Max. Y spins =              0
(PID.TID 0000.0001) //            Min. Y spins =     1000000000
(PID.TID 0000.0001) //          Total. Y spins =              0
(PID.TID 0000.0001) //            Avg. Y spins =       0.00E+00
(PID.TID 0000.0001) // o Tile number: 000059
(PID.TID 0000.0001) //         No. X exchanges =              0
(PID.TID 0000.0001) //            Max. X spins =              0
(PID.TID 0000.0001) //            Min. X spins =     1000000000
(PID.TID 0000.0001) //          Total. X spins =              0
(PID.TID 0000.0001) //            Avg. X spins =       0.00E+00
(PID.TID 0000.0001) //         No. Y exchanges =              0
(PID.TID 0000.0001) //            Max. Y spins =              0
(PID.TID 0000.0001) //            Min. Y spins =     1000000000
(PID.TID 0000.0001) //          Total. Y spins =              0
(PID.TID 0000.0001) //            Avg. Y spins =       0.00E+00
(PID.TID 0000.0001) // o Tile number: 000060
(PID.TID 0000.0001) //         No. X exchanges =              0
(PID.TID 0000.0001) //            Max. X spins =              0
(PID.TID 0000.0001) //            Min. X spins =     1000000000
(PID.TID 0000.0001) //          Total. X spins =              0
(PID.TID 0000.0001) //            Avg. X spins =       0.00E+00
(PID.TID 0000.0001) //         No. Y exchanges =              0
(PID.TID 0000.0001) //            Max. Y spins =              0
(PID.TID 0000.0001) //            Min. Y spins =     1000000000
(PID.TID 0000.0001) //          Total. Y spins =              0
(PID.TID 0000.0001) //            Avg. Y spins =       0.00E+00
(PID.TID 0000.0001) // o Tile number: 000061
(PID.TID 0000.0001) //         No. X exchanges =              0
(PID.TID 0000.0001) //            Max. X spins =              0
(PID.TID 0000.0001) //            Min. X spins =     1000000000
(PID.TID 0000.0001) //          Total. X spins =              0
(PID.TID 0000.0001) //            Avg. X spins =       0.00E+00
(PID.TID 0000.0001) //         No. Y exchanges =              0
(PID.TID 0000.0001) //            Max. Y spins =              0
(PID.TID 0000.0001) //            Min. Y spins =     1000000000
(PID.TID 0000.0001) //          Total. Y spins =              0
(PID.TID 0000.0001) //            Avg. Y spins =       0.00E+00
(PID.TID 0000.0001) // o Tile number: 000062
(PID.TID 0000.0001) //         No. X exchanges =              0
(PID.TID 0000.0001) //            Max. X spins =              0
(PID.TID 0000.0001) //            Min. X spins =     1000000000
(PID.TID 0000.0001) //          Total. X spins =              0
(PID.TID 0000.0001) //            Avg. X spins =       0.00E+00
(PID.TID 0000.0001) //         No. Y exchanges =              0
(PID.TID 0000.0001) //            Max. Y spins =              0
(PID.TID 0000.0001) //            Min. Y spins =     1000000000
(PID.TID 0000.0001) //          Total. Y spins =              0
(PID.TID 0000.0001) //            Avg. Y spins =       0.00E+00
(PID.TID 0000.0001) // o Tile number: 000063
(PID.TID 0000.0001) //         No. X exchanges =              0
(PID.TID 0000.0001) //            Max. X spins =              0
(PID.TID 0000.0001) //            Min. X spins =     1000000000
(PID.TID 0000.0001) //          Total. X spins =              0
(PID.TID 0000.0001) //            Avg. X spins =       0.00E+00
(PID.TID 0000.0001) //         No. Y exchanges =              0
(PID.TID 0000.0001) //            Max. Y spins =              0
(PID.TID 0000.0001) //            Min. Y spins =     1000000000
(PID.TID 0000.0001) //          Total. Y spins =              0
(PID.TID 0000.0001) //            Avg. Y spins =       0.00E+00
(PID.TID 0000.0001) // o Tile number: 000064
(PID.TID 0000.0001) //         No. X exchanges =              0
(PID.TID 0000.0001) //            Max. X spins =              0
(PID.TID 0000.0001) //            Min. X spins =     1000000000
(PID.TID 0000.0001) //          Total. X spins =              0
(PID.TID 0000.0001) //            Avg. X spins =       0.00E+00
(PID.TID 0000.0001) //         No. Y exchanges =              0
(PID.TID 0000.0001) //            Max. Y spins =              0
(PID.TID 0000.0001) //            Min. Y spins =     1000000000
(PID.TID 0000.0001) //          Total. Y spins =              0
(PID.TID 0000.0001) //            Avg. Y spins =       0.00E+00
(PID.TID 0000.0001) // o Tile number: 000065
(PID.TID 0000.0001) //         No. X exchanges =              0
(PID.TID 0000.0001) //            Max. X spins =              0
(PID.TID 0000.0001) //            Min. X spins =     1000000000
(PID.TID 0000.0001) //          Total. X spins =              0
(PID.TID 0000.0001) //            Avg. X spins =       0.00E+00
(PID.TID 0000.0001) //         No. Y exchanges =              0
(PID.TID 0000.0001) //            Max. Y spins =              0
(PID.TID 0000.0001) //            Min. Y spins =     1000000000
(PID.TID 0000.0001) //          Total. Y spins =              0
(PID.TID 0000.0001) //            Avg. Y spins =       0.00E+00
(PID.TID 0000.0001) // o Tile number: 000066
(PID.TID 0000.0001) //         No. X exchanges =              0
(PID.TID 0000.0001) //            Max. X spins =              0
(PID.TID 0000.0001) //            Min. X spins =     1000000000
(PID.TID 0000.0001) //          Total. X spins =              0
(PID.TID 0000.0001) //            Avg. X spins =       0.00E+00
(PID.TID 0000.0001) //         No. Y exchanges =              0
(PID.TID 0000.0001) //            Max. Y spins =              0
(PID.TID 0000.0001) //            Min. Y spins =     1000000000
(PID.TID 0000.0001) //          Total. Y spins =              0
(PID.TID 0000.0001) //            Avg. Y spins =       0.00E+00
(PID.TID 0000.0001) // o Tile number: 000067
(PID.TID 0000.0001) //         No. X exchanges =              0
(PID.TID 0000.0001) //            Max. X spins =              0
(PID.TID 0000.0001) //            Min. X spins =     1000000000
(PID.TID 0000.0001) //          Total. X spins =              0
(PID.TID 0000.0001) //            Avg. X spins =       0.00E+00
(PID.TID 0000.0001) //         No. Y exchanges =              0
(PID.TID 0000.0001) //            Max. Y spins =              0
(PID.TID 0000.0001) //            Min. Y spins =     1000000000
(PID.TID 0000.0001) //          Total. Y spins =              0
(PID.TID 0000.0001) //            Avg. Y spins =       0.00E+00
(PID.TID 0000.0001) // o Tile number: 000068
(PID.TID 0000.0001) //         No. X exchanges =              0
(PID.TID 0000.0001) //            Max. X spins =              0
(PID.TID 0000.0001) //            Min. X spins =     1000000000
(PID.TID 0000.0001) //          Total. X spins =              0
(PID.TID 0000.0001) //            Avg. X spins =       0.00E+00
(PID.TID 0000.0001) //         No. Y exchanges =              0
(PID.TID 0000.0001) //            Max. Y spins =              0
(PID.TID 0000.0001) //            Min. Y spins =     1000000000
(PID.TID 0000.0001) //          Total. Y spins =              0
(PID.TID 0000.0001) //            Avg. Y spins =       0.00E+00
(PID.TID 0000.0001) // o Tile number: 000069
(PID.TID 0000.0001) //         No. X exchanges =              0
(PID.TID 0000.0001) //            Max. X spins =              0
(PID.TID 0000.0001) //            Min. X spins =     1000000000
(PID.TID 0000.0001) //          Total. X spins =              0
(PID.TID 0000.0001) //            Avg. X spins =       0.00E+00
(PID.TID 0000.0001) //         No. Y exchanges =              0
(PID.TID 0000.0001) //            Max. Y spins =              0
(PID.TID 0000.0001) //            Min. Y spins =     1000000000
(PID.TID 0000.0001) //          Total. Y spins =              0
(PID.TID 0000.0001) //            Avg. Y spins =       0.00E+00
(PID.TID 0000.0001) // o Tile number: 000070
(PID.TID 0000.0001) //         No. X exchanges =              0
(PID.TID 0000.0001) //            Max. X spins =              0
(PID.TID 0000.0001) //            Min. X spins =     1000000000
(PID.TID 0000.0001) //          Total. X spins =              0
(PID.TID 0000.0001) //            Avg. X spins =       0.00E+00
(PID.TID 0000.0001) //         No. Y exchanges =              0
(PID.TID 0000.0001) //            Max. Y spins =              0
(PID.TID 0000.0001) //            Min. Y spins =     1000000000
(PID.TID 0000.0001) //          Total. Y spins =              0
(PID.TID 0000.0001) //            Avg. Y spins =       0.00E+00
(PID.TID 0000.0001) // o Tile number: 000071
(PID.TID 0000.0001) //         No. X exchanges =              0
(PID.TID 0000.0001) //            Max. X spins =              0
(PID.TID 0000.0001) //            Min. X spins =     1000000000
(PID.TID 0000.0001) //          Total. X spins =              0
(PID.TID 0000.0001) //            Avg. X spins =       0.00E+00
(PID.TID 0000.0001) //         No. Y exchanges =              0
(PID.TID 0000.0001) //            Max. Y spins =              0
(PID.TID 0000.0001) //            Min. Y spins =     1000000000
(PID.TID 0000.0001) //          Total. Y spins =              0
(PID.TID 0000.0001) //            Avg. Y spins =       0.00E+00
(PID.TID 0000.0001) // o Tile number: 000072
(PID.TID 0000.0001) //         No. X exchanges =              0
(PID.TID 0000.0001) //            Max. X spins =              0
(PID.TID 0000.0001) //            Min. X spins =     1000000000
(PID.TID 0000.0001) //          Total. X spins =              0
(PID.TID 0000.0001) //            Avg. X spins =       0.00E+00
(PID.TID 0000.0001) //         No. Y exchanges =              0
(PID.TID 0000.0001) //            Max. Y spins =              0
(PID.TID 0000.0001) //            Min. Y spins =     1000000000
(PID.TID 0000.0001) //          Total. Y spins =              0
(PID.TID 0000.0001) //            Avg. Y spins =       0.00E+00
(PID.TID 0000.0001) // o Tile number: 000073
(PID.TID 0000.0001) //         No. X exchanges =              0
(PID.TID 0000.0001) //            Max. X spins =              0
(PID.TID 0000.0001) //            Min. X spins =     1000000000
(PID.TID 0000.0001) //          Total. X spins =              0
(PID.TID 0000.0001) //            Avg. X spins =       0.00E+00
(PID.TID 0000.0001) //         No. Y exchanges =              0
(PID.TID 0000.0001) //            Max. Y spins =              0
(PID.TID 0000.0001) //            Min. Y spins =     1000000000
(PID.TID 0000.0001) //          Total. Y spins =              0
(PID.TID 0000.0001) //            Avg. Y spins =       0.00E+00
(PID.TID 0000.0001) // o Tile number: 000074
(PID.TID 0000.0001) //         No. X exchanges =              0
(PID.TID 0000.0001) //            Max. X spins =              0
(PID.TID 0000.0001) //            Min. X spins =     1000000000
(PID.TID 0000.0001) //          Total. X spins =              0
(PID.TID 0000.0001) //            Avg. X spins =       0.00E+00
(PID.TID 0000.0001) //         No. Y exchanges =              0
(PID.TID 0000.0001) //            Max. Y spins =              0
(PID.TID 0000.0001) //            Min. Y spins =     1000000000
(PID.TID 0000.0001) //          Total. Y spins =              0
(PID.TID 0000.0001) //            Avg. Y spins =       0.00E+00
(PID.TID 0000.0001) // o Tile number: 000075
(PID.TID 0000.0001) //         No. X exchanges =              0
(PID.TID 0000.0001) //            Max. X spins =              0
(PID.TID 0000.0001) //            Min. X spins =     1000000000
(PID.TID 0000.0001) //          Total. X spins =              0
(PID.TID 0000.0001) //            Avg. X spins =       0.00E+00
(PID.TID 0000.0001) //         No. Y exchanges =              0
(PID.TID 0000.0001) //            Max. Y spins =              0
(PID.TID 0000.0001) //            Min. Y spins =     1000000000
(PID.TID 0000.0001) //          Total. Y spins =              0
(PID.TID 0000.0001) //            Avg. Y spins =       0.00E+00
(PID.TID 0000.0001) // o Tile number: 000076
(PID.TID 0000.0001) //         No. X exchanges =              0
(PID.TID 0000.0001) //            Max. X spins =              0
(PID.TID 0000.0001) //            Min. X spins =     1000000000
(PID.TID 0000.0001) //          Total. X spins =              0
(PID.TID 0000.0001) //            Avg. X spins =       0.00E+00
(PID.TID 0000.0001) //         No. Y exchanges =              0
(PID.TID 0000.0001) //            Max. Y spins =              0
(PID.TID 0000.0001) //            Min. Y spins =     1000000000
(PID.TID 0000.0001) //          Total. Y spins =              0
(PID.TID 0000.0001) //            Avg. Y spins =       0.00E+00
(PID.TID 0000.0001) // o Tile number: 000077
(PID.TID 0000.0001) //         No. X exchanges =              0
(PID.TID 0000.0001) //            Max. X spins =              0
(PID.TID 0000.0001) //            Min. X spins =     1000000000
(PID.TID 0000.0001) //          Total. X spins =              0
(PID.TID 0000.0001) //            Avg. X spins =       0.00E+00
(PID.TID 0000.0001) //         No. Y exchanges =              0
(PID.TID 0000.0001) //            Max. Y spins =              0
(PID.TID 0000.0001) //            Min. Y spins =     1000000000
(PID.TID 0000.0001) //          Total. Y spins =              0
(PID.TID 0000.0001) //            Avg. Y spins =       0.00E+00
(PID.TID 0000.0001) // o Tile number: 000078
(PID.TID 0000.0001) //         No. X exchanges =              0
(PID.TID 0000.0001) //            Max. X spins =              0
(PID.TID 0000.0001) //            Min. X spins =     1000000000
(PID.TID 0000.0001) //          Total. X spins =              0
(PID.TID 0000.0001) //            Avg. X spins =       0.00E+00
(PID.TID 0000.0001) //         No. Y exchanges =              0
(PID.TID 0000.0001) //            Max. Y spins =              0
(PID.TID 0000.0001) //            Min. Y spins =     1000000000
(PID.TID 0000.0001) //          Total. Y spins =              0
(PID.TID 0000.0001) //            Avg. Y spins =       0.00E+00
(PID.TID 0000.0001) // o Tile number: 000079
(PID.TID 0000.0001) //         No. X exchanges =              0
(PID.TID 0000.0001) //            Max. X spins =              0
(PID.TID 0000.0001) //            Min. X spins =     1000000000
(PID.TID 0000.0001) //          Total. X spins =              0
(PID.TID 0000.0001) //            Avg. X spins =       0.00E+00
(PID.TID 0000.0001) //         No. Y exchanges =              0
(PID.TID 0000.0001) //            Max. Y spins =              0
(PID.TID 0000.0001) //            Min. Y spins =     1000000000
(PID.TID 0000.0001) //          Total. Y spins =              0
(PID.TID 0000.0001) //            Avg. Y spins =       0.00E+00
(PID.TID 0000.0001) // o Tile number: 000080
(PID.TID 0000.0001) //         No. X exchanges =              0
(PID.TID 0000.0001) //            Max. X spins =              0
(PID.TID 0000.0001) //            Min. X spins =     1000000000
(PID.TID 0000.0001) //          Total. X spins =              0
(PID.TID 0000.0001) //            Avg. X spins =       0.00E+00
(PID.TID 0000.0001) //         No. Y exchanges =              0
(PID.TID 0000.0001) //            Max. Y spins =              0
(PID.TID 0000.0001) //            Min. Y spins =     1000000000
(PID.TID 0000.0001) //          Total. Y spins =              0
(PID.TID 0000.0001) //            Avg. Y spins =       0.00E+00
(PID.TID 0000.0001) // o Tile number: 000081
(PID.TID 0000.0001) //         No. X exchanges =              0
(PID.TID 0000.0001) //            Max. X spins =              0
(PID.TID 0000.0001) //            Min. X spins =     1000000000
(PID.TID 0000.0001) //          Total. X spins =              0
(PID.TID 0000.0001) //            Avg. X spins =       0.00E+00
(PID.TID 0000.0001) //         No. Y exchanges =              0
(PID.TID 0000.0001) //            Max. Y spins =              0
(PID.TID 0000.0001) //            Min. Y spins =     1000000000
(PID.TID 0000.0001) //          Total. Y spins =              0
(PID.TID 0000.0001) //            Avg. Y spins =       0.00E+00
(PID.TID 0000.0001) // o Tile number: 000082
(PID.TID 0000.0001) //         No. X exchanges =              0
(PID.TID 0000.0001) //            Max. X spins =              0
(PID.TID 0000.0001) //            Min. X spins =     1000000000
(PID.TID 0000.0001) //          Total. X spins =              0
(PID.TID 0000.0001) //            Avg. X spins =       0.00E+00
(PID.TID 0000.0001) //         No. Y exchanges =              0
(PID.TID 0000.0001) //            Max. Y spins =              0
(PID.TID 0000.0001) //            Min. Y spins =     1000000000
(PID.TID 0000.0001) //          Total. Y spins =              0
(PID.TID 0000.0001) //            Avg. Y spins =       0.00E+00
(PID.TID 0000.0001) // o Tile number: 000083
(PID.TID 0000.0001) //         No. X exchanges =              0
(PID.TID 0000.0001) //            Max. X spins =              0
(PID.TID 0000.0001) //            Min. X spins =     1000000000
(PID.TID 0000.0001) //          Total. X spins =              0
(PID.TID 0000.0001) //            Avg. X spins =       0.00E+00
(PID.TID 0000.0001) //         No. Y exchanges =              0
(PID.TID 0000.0001) //            Max. Y spins =              0
(PID.TID 0000.0001) //            Min. Y spins =     1000000000
(PID.TID 0000.0001) //          Total. Y spins =              0
(PID.TID 0000.0001) //            Avg. Y spins =       0.00E+00
(PID.TID 0000.0001) // o Tile number: 000084
(PID.TID 0000.0001) //         No. X exchanges =              0
(PID.TID 0000.0001) //            Max. X spins =              0
(PID.TID 0000.0001) //            Min. X spins =     1000000000
(PID.TID 0000.0001) //          Total. X spins =              0
(PID.TID 0000.0001) //            Avg. X spins =       0.00E+00
(PID.TID 0000.0001) //         No. Y exchanges =              0
(PID.TID 0000.0001) //            Max. Y spins =              0
(PID.TID 0000.0001) //            Min. Y spins =     1000000000
(PID.TID 0000.0001) //          Total. Y spins =              0
(PID.TID 0000.0001) //            Avg. Y spins =       0.00E+00
(PID.TID 0000.0001) // o Tile number: 000085
(PID.TID 0000.0001) //         No. X exchanges =              0
(PID.TID 0000.0001) //            Max. X spins =              0
(PID.TID 0000.0001) //            Min. X spins =     1000000000
(PID.TID 0000.0001) //          Total. X spins =              0
(PID.TID 0000.0001) //            Avg. X spins =       0.00E+00
(PID.TID 0000.0001) //         No. Y exchanges =              0
(PID.TID 0000.0001) //            Max. Y spins =              0
(PID.TID 0000.0001) //            Min. Y spins =     1000000000
(PID.TID 0000.0001) //          Total. Y spins =              0
(PID.TID 0000.0001) //            Avg. Y spins =       0.00E+00
(PID.TID 0000.0001) // o Tile number: 000086
(PID.TID 0000.0001) //         No. X exchanges =              0
(PID.TID 0000.0001) //            Max. X spins =              0
(PID.TID 0000.0001) //            Min. X spins =     1000000000
(PID.TID 0000.0001) //          Total. X spins =              0
(PID.TID 0000.0001) //            Avg. X spins =       0.00E+00
(PID.TID 0000.0001) //         No. Y exchanges =              0
(PID.TID 0000.0001) //            Max. Y spins =              0
(PID.TID 0000.0001) //            Min. Y spins =     1000000000
(PID.TID 0000.0001) //          Total. Y spins =              0
(PID.TID 0000.0001) //            Avg. Y spins =       0.00E+00
(PID.TID 0000.0001) // o Tile number: 000087
(PID.TID 0000.0001) //         No. X exchanges =              0
(PID.TID 0000.0001) //            Max. X spins =              0
(PID.TID 0000.0001) //            Min. X spins =     1000000000
(PID.TID 0000.0001) //          Total. X spins =              0
(PID.TID 0000.0001) //            Avg. X spins =       0.00E+00
(PID.TID 0000.0001) //         No. Y exchanges =              0
(PID.TID 0000.0001) //            Max. Y spins =              0
(PID.TID 0000.0001) //            Min. Y spins =     1000000000
(PID.TID 0000.0001) //          Total. Y spins =              0
(PID.TID 0000.0001) //            Avg. Y spins =       0.00E+00
(PID.TID 0000.0001) // o Tile number: 000088
(PID.TID 0000.0001) //         No. X exchanges =              0
(PID.TID 0000.0001) //            Max. X spins =              0
(PID.TID 0000.0001) //            Min. X spins =     1000000000
(PID.TID 0000.0001) //          Total. X spins =              0
(PID.TID 0000.0001) //            Avg. X spins =       0.00E+00
(PID.TID 0000.0001) //         No. Y exchanges =              0
(PID.TID 0000.0001) //            Max. Y spins =              0
(PID.TID 0000.0001) //            Min. Y spins =     1000000000
(PID.TID 0000.0001) //          Total. Y spins =              0
(PID.TID 0000.0001) //            Avg. Y spins =       0.00E+00
(PID.TID 0000.0001) // o Tile number: 000089
(PID.TID 0000.0001) //         No. X exchanges =              0
(PID.TID 0000.0001) //            Max. X spins =              0
(PID.TID 0000.0001) //            Min. X spins =     1000000000
(PID.TID 0000.0001) //          Total. X spins =              0
(PID.TID 0000.0001) //            Avg. X spins =       0.00E+00
(PID.TID 0000.0001) //         No. Y exchanges =              0
(PID.TID 0000.0001) //            Max. Y spins =              0
(PID.TID 0000.0001) //            Min. Y spins =     1000000000
(PID.TID 0000.0001) //          Total. Y spins =              0
(PID.TID 0000.0001) //            Avg. Y spins =       0.00E+00
(PID.TID 0000.0001) // o Tile number: 000090
(PID.TID 0000.0001) //         No. X exchanges =              0
(PID.TID 0000.0001) //            Max. X spins =              0
(PID.TID 0000.0001) //            Min. X spins =     1000000000
(PID.TID 0000.0001) //          Total. X spins =              0
(PID.TID 0000.0001) //            Avg. X spins =       0.00E+00
(PID.TID 0000.0001) //         No. Y exchanges =              0
(PID.TID 0000.0001) //            Max. Y spins =              0
(PID.TID 0000.0001) //            Min. Y spins =     1000000000
(PID.TID 0000.0001) //          Total. Y spins =              0
(PID.TID 0000.0001) //            Avg. Y spins =       0.00E+00
(PID.TID 0000.0001) // o Tile number: 000091
(PID.TID 0000.0001) //         No. X exchanges =              0
(PID.TID 0000.0001) //            Max. X spins =              0
(PID.TID 0000.0001) //            Min. X spins =     1000000000
(PID.TID 0000.0001) //          Total. X spins =              0
(PID.TID 0000.0001) //            Avg. X spins =       0.00E+00
(PID.TID 0000.0001) //         No. Y exchanges =              0
(PID.TID 0000.0001) //            Max. Y spins =              0
(PID.TID 0000.0001) //            Min. Y spins =     1000000000
(PID.TID 0000.0001) //          Total. Y spins =              0
(PID.TID 0000.0001) //            Avg. Y spins =       0.00E+00
(PID.TID 0000.0001) // o Tile number: 000092
(PID.TID 0000.0001) //         No. X exchanges =              0
(PID.TID 0000.0001) //            Max. X spins =              0
(PID.TID 0000.0001) //            Min. X spins =     1000000000
(PID.TID 0000.0001) //          Total. X spins =              0
(PID.TID 0000.0001) //            Avg. X spins =       0.00E+00
(PID.TID 0000.0001) //         No. Y exchanges =              0
(PID.TID 0000.0001) //            Max. Y spins =              0
(PID.TID 0000.0001) //            Min. Y spins =     1000000000
(PID.TID 0000.0001) //          Total. Y spins =              0
(PID.TID 0000.0001) //            Avg. Y spins =       0.00E+00
(PID.TID 0000.0001) // o Tile number: 000093
(PID.TID 0000.0001) //         No. X exchanges =              0
(PID.TID 0000.0001) //            Max. X spins =              0
(PID.TID 0000.0001) //            Min. X spins =     1000000000
(PID.TID 0000.0001) //          Total. X spins =              0
(PID.TID 0000.0001) //            Avg. X spins =       0.00E+00
(PID.TID 0000.0001) //         No. Y exchanges =              0
(PID.TID 0000.0001) //            Max. Y spins =              0
(PID.TID 0000.0001) //            Min. Y spins =     1000000000
(PID.TID 0000.0001) //          Total. Y spins =              0
(PID.TID 0000.0001) //            Avg. Y spins =       0.00E+00
(PID.TID 0000.0001) // o Tile number: 000094
(PID.TID 0000.0001) //         No. X exchanges =              0
(PID.TID 0000.0001) //            Max. X spins =              0
(PID.TID 0000.0001) //            Min. X spins =     1000000000
(PID.TID 0000.0001) //          Total. X spins =              0
(PID.TID 0000.0001) //            Avg. X spins =       0.00E+00
(PID.TID 0000.0001) //         No. Y exchanges =              0
(PID.TID 0000.0001) //            Max. Y spins =              0
(PID.TID 0000.0001) //            Min. Y spins =     1000000000
(PID.TID 0000.0001) //          Total. Y spins =              0
(PID.TID 0000.0001) //            Avg. Y spins =       0.00E+00
(PID.TID 0000.0001) // o Tile number: 000095
(PID.TID 0000.0001) //         No. X exchanges =              0
(PID.TID 0000.0001) //            Max. X spins =              0
(PID.TID 0000.0001) //            Min. X spins =     1000000000
(PID.TID 0000.0001) //          Total. X spins =              0
(PID.TID 0000.0001) //            Avg. X spins =       0.00E+00
(PID.TID 0000.0001) //         No. Y exchanges =              0
(PID.TID 0000.0001) //            Max. Y spins =              0
(PID.TID 0000.0001) //            Min. Y spins =     1000000000
(PID.TID 0000.0001) //          Total. Y spins =              0
(PID.TID 0000.0001) //            Avg. Y spins =       0.00E+00
(PID.TID 0000.0001) // o Tile number: 000096
(PID.TID 0000.0001) //         No. X exchanges =              0
(PID.TID 0000.0001) //            Max. X spins =              0
(PID.TID 0000.0001) //            Min. X spins =     1000000000
(PID.TID 0000.0001) //          Total. X spins =              0
(PID.TID 0000.0001) //            Avg. X spins =       0.00E+00
(PID.TID 0000.0001) //         No. Y exchanges =              0
(PID.TID 0000.0001) //            Max. Y spins =              0
(PID.TID 0000.0001) //            Min. Y spins =     1000000000
(PID.TID 0000.0001) //          Total. Y spins =              0
(PID.TID 0000.0001) //            Avg. Y spins =       0.00E+00
(PID.TID 0000.0001) // o Tile number: 000097
(PID.TID 0000.0001) //         No. X exchanges =              0
(PID.TID 0000.0001) //            Max. X spins =              0
(PID.TID 0000.0001) //            Min. X spins =     1000000000
(PID.TID 0000.0001) //          Total. X spins =              0
(PID.TID 0000.0001) //            Avg. X spins =       0.00E+00
(PID.TID 0000.0001) //         No. Y exchanges =              0
(PID.TID 0000.0001) //            Max. Y spins =              0
(PID.TID 0000.0001) //            Min. Y spins =     1000000000
(PID.TID 0000.0001) //          Total. Y spins =              0
(PID.TID 0000.0001) //            Avg. Y spins =       0.00E+00
(PID.TID 0000.0001) // o Tile number: 000098
(PID.TID 0000.0001) //         No. X exchanges =              0
(PID.TID 0000.0001) //            Max. X spins =              0
(PID.TID 0000.0001) //            Min. X spins =     1000000000
(PID.TID 0000.0001) //          Total. X spins =              0
(PID.TID 0000.0001) //            Avg. X spins =       0.00E+00
(PID.TID 0000.0001) //         No. Y exchanges =              0
(PID.TID 0000.0001) //            Max. Y spins =              0
(PID.TID 0000.0001) //            Min. Y spins =     1000000000
(PID.TID 0000.0001) //          Total. Y spins =              0
(PID.TID 0000.0001) //            Avg. Y spins =       0.00E+00
(PID.TID 0000.0001) // o Tile number: 000099
(PID.TID 0000.0001) //         No. X exchanges =              0
(PID.TID 0000.0001) //            Max. X spins =              0
(PID.TID 0000.0001) //            Min. X spins =     1000000000
(PID.TID 0000.0001) //          Total. X spins =              0
(PID.TID 0000.0001) //            Avg. X spins =       0.00E+00
(PID.TID 0000.0001) //         No. Y exchanges =              0
(PID.TID 0000.0001) //            Max. Y spins =              0
(PID.TID 0000.0001) //            Min. Y spins =     1000000000
(PID.TID 0000.0001) //          Total. Y spins =              0
(PID.TID 0000.0001) //            Avg. Y spins =       0.00E+00
(PID.TID 0000.0001) // o Tile number: 000100
(PID.TID 0000.0001) //         No. X exchanges =              0
(PID.TID 0000.0001) //            Max. X spins =              0
(PID.TID 0000.0001) //            Min. X spins =     1000000000
(PID.TID 0000.0001) //          Total. X spins =              0
(PID.TID 0000.0001) //            Avg. X spins =       0.00E+00
(PID.TID 0000.0001) //         No. Y exchanges =              0
(PID.TID 0000.0001) //            Max. Y spins =              0
(PID.TID 0000.0001) //            Min. Y spins =     1000000000
(PID.TID 0000.0001) //          Total. Y spins =              0
(PID.TID 0000.0001) //            Avg. Y spins =       0.00E+00
(PID.TID 0000.0001) // o Tile number: 000101
(PID.TID 0000.0001) //         No. X exchanges =              0
(PID.TID 0000.0001) //            Max. X spins =              0
(PID.TID 0000.0001) //            Min. X spins =     1000000000
(PID.TID 0000.0001) //          Total. X spins =              0
(PID.TID 0000.0001) //            Avg. X spins =       0.00E+00
(PID.TID 0000.0001) //         No. Y exchanges =              0
(PID.TID 0000.0001) //            Max. Y spins =              0
(PID.TID 0000.0001) //            Min. Y spins =     1000000000
(PID.TID 0000.0001) //          Total. Y spins =              0
(PID.TID 0000.0001) //            Avg. Y spins =       0.00E+00
(PID.TID 0000.0001) // o Tile number: 000102
(PID.TID 0000.0001) //         No. X exchanges =              0
(PID.TID 0000.0001) //            Max. X spins =              0
(PID.TID 0000.0001) //            Min. X spins =     1000000000
(PID.TID 0000.0001) //          Total. X spins =              0
(PID.TID 0000.0001) //            Avg. X spins =       0.00E+00
(PID.TID 0000.0001) //         No. Y exchanges =              0
(PID.TID 0000.0001) //            Max. Y spins =              0
(PID.TID 0000.0001) //            Min. Y spins =     1000000000
(PID.TID 0000.0001) //          Total. Y spins =              0
(PID.TID 0000.0001) //            Avg. Y spins =       0.00E+00
(PID.TID 0000.0001) // o Tile number: 000103
(PID.TID 0000.0001) //         No. X exchanges =              0
(PID.TID 0000.0001) //            Max. X spins =              0
(PID.TID 0000.0001) //            Min. X spins =     1000000000
(PID.TID 0000.0001) //          Total. X spins =              0
(PID.TID 0000.0001) //            Avg. X spins =       0.00E+00
(PID.TID 0000.0001) //         No. Y exchanges =              0
(PID.TID 0000.0001) //            Max. Y spins =              0
(PID.TID 0000.0001) //            Min. Y spins =     1000000000
(PID.TID 0000.0001) //          Total. Y spins =              0
(PID.TID 0000.0001) //            Avg. Y spins =       0.00E+00
(PID.TID 0000.0001) // o Tile number: 000104
(PID.TID 0000.0001) //         No. X exchanges =              0
(PID.TID 0000.0001) //            Max. X spins =              0
(PID.TID 0000.0001) //            Min. X spins =     1000000000
(PID.TID 0000.0001) //          Total. X spins =              0
(PID.TID 0000.0001) //            Avg. X spins =       0.00E+00
(PID.TID 0000.0001) //         No. Y exchanges =              0
(PID.TID 0000.0001) //            Max. Y spins =              0
(PID.TID 0000.0001) //            Min. Y spins =     1000000000
(PID.TID 0000.0001) //          Total. Y spins =              0
(PID.TID 0000.0001) //            Avg. Y spins =       0.00E+00
(PID.TID 0000.0001) // o Tile number: 000105
(PID.TID 0000.0001) //         No. X exchanges =              0
(PID.TID 0000.0001) //            Max. X spins =              0
(PID.TID 0000.0001) //            Min. X spins =     1000000000
(PID.TID 0000.0001) //          Total. X spins =              0
(PID.TID 0000.0001) //            Avg. X spins =       0.00E+00
(PID.TID 0000.0001) //         No. Y exchanges =              0
(PID.TID 0000.0001) //            Max. Y spins =              0
(PID.TID 0000.0001) //            Min. Y spins =     1000000000
(PID.TID 0000.0001) //          Total. Y spins =              0
(PID.TID 0000.0001) //            Avg. Y spins =       0.00E+00
(PID.TID 0000.0001) // o Tile number: 000106
(PID.TID 0000.0001) //         No. X exchanges =              0
(PID.TID 0000.0001) //            Max. X spins =              0
(PID.TID 0000.0001) //            Min. X spins =     1000000000
(PID.TID 0000.0001) //          Total. X spins =              0
(PID.TID 0000.0001) //            Avg. X spins =       0.00E+00
(PID.TID 0000.0001) //         No. Y exchanges =              0
(PID.TID 0000.0001) //            Max. Y spins =              0
(PID.TID 0000.0001) //            Min. Y spins =     1000000000
(PID.TID 0000.0001) //          Total. Y spins =              0
(PID.TID 0000.0001) //            Avg. Y spins =       0.00E+00
(PID.TID 0000.0001) // o Tile number: 000107
(PID.TID 0000.0001) //         No. X exchanges =              0
(PID.TID 0000.0001) //            Max. X spins =              0
(PID.TID 0000.0001) //            Min. X spins =     1000000000
(PID.TID 0000.0001) //          Total. X spins =              0
(PID.TID 0000.0001) //            Avg. X spins =       0.00E+00
(PID.TID 0000.0001) //         No. Y exchanges =              0
(PID.TID 0000.0001) //            Max. Y spins =              0
(PID.TID 0000.0001) //            Min. Y spins =     1000000000
(PID.TID 0000.0001) //          Total. Y spins =              0
(PID.TID 0000.0001) //            Avg. Y spins =       0.00E+00
(PID.TID 0000.0001) // o Tile number: 000108
(PID.TID 0000.0001) //         No. X exchanges =              0
(PID.TID 0000.0001) //            Max. X spins =              0
(PID.TID 0000.0001) //            Min. X spins =     1000000000
(PID.TID 0000.0001) //          Total. X spins =              0
(PID.TID 0000.0001) //            Avg. X spins =       0.00E+00
(PID.TID 0000.0001) //         No. Y exchanges =              0
(PID.TID 0000.0001) //            Max. Y spins =              0
(PID.TID 0000.0001) //            Min. Y spins =     1000000000
(PID.TID 0000.0001) //          Total. Y spins =              0
(PID.TID 0000.0001) //            Avg. Y spins =       0.00E+00
(PID.TID 0000.0001) // o Tile number: 000109
(PID.TID 0000.0001) //         No. X exchanges =              0
(PID.TID 0000.0001) //            Max. X spins =              0
(PID.TID 0000.0001) //            Min. X spins =     1000000000
(PID.TID 0000.0001) //          Total. X spins =              0
(PID.TID 0000.0001) //            Avg. X spins =       0.00E+00
(PID.TID 0000.0001) //         No. Y exchanges =              0
(PID.TID 0000.0001) //            Max. Y spins =              0
(PID.TID 0000.0001) //            Min. Y spins =     1000000000
(PID.TID 0000.0001) //          Total. Y spins =              0
(PID.TID 0000.0001) //            Avg. Y spins =       0.00E+00
(PID.TID 0000.0001) // o Tile number: 000110
(PID.TID 0000.0001) //         No. X exchanges =              0
(PID.TID 0000.0001) //            Max. X spins =              0
(PID.TID 0000.0001) //            Min. X spins =     1000000000
(PID.TID 0000.0001) //          Total. X spins =              0
(PID.TID 0000.0001) //            Avg. X spins =       0.00E+00
(PID.TID 0000.0001) //         No. Y exchanges =              0
(PID.TID 0000.0001) //            Max. Y spins =              0
(PID.TID 0000.0001) //            Min. Y spins =     1000000000
(PID.TID 0000.0001) //          Total. Y spins =              0
(PID.TID 0000.0001) //            Avg. Y spins =       0.00E+00
(PID.TID 0000.0001) // o Tile number: 000111
(PID.TID 0000.0001) //         No. X exchanges =              0
(PID.TID 0000.0001) //            Max. X spins =              0
(PID.TID 0000.0001) //            Min. X spins =     1000000000
(PID.TID 0000.0001) //          Total. X spins =              0
(PID.TID 0000.0001) //            Avg. X spins =       0.00E+00
(PID.TID 0000.0001) //         No. Y exchanges =              0
(PID.TID 0000.0001) //            Max. Y spins =              0
(PID.TID 0000.0001) //            Min. Y spins =     1000000000
(PID.TID 0000.0001) //          Total. Y spins =              0
(PID.TID 0000.0001) //            Avg. Y spins =       0.00E+00
(PID.TID 0000.0001) // o Tile number: 000112
(PID.TID 0000.0001) //         No. X exchanges =              0
(PID.TID 0000.0001) //            Max. X spins =              0
(PID.TID 0000.0001) //            Min. X spins =     1000000000
(PID.TID 0000.0001) //          Total. X spins =              0
(PID.TID 0000.0001) //            Avg. X spins =       0.00E+00
(PID.TID 0000.0001) //         No. Y exchanges =              0
(PID.TID 0000.0001) //            Max. Y spins =              0
(PID.TID 0000.0001) //            Min. Y spins =     1000000000
(PID.TID 0000.0001) //          Total. Y spins =              0
(PID.TID 0000.0001) //            Avg. Y spins =       0.00E+00
(PID.TID 0000.0001) // o Tile number: 000113
(PID.TID 0000.0001) //         No. X exchanges =              0
(PID.TID 0000.0001) //            Max. X spins =              0
(PID.TID 0000.0001) //            Min. X spins =     1000000000
(PID.TID 0000.0001) //          Total. X spins =              0
(PID.TID 0000.0001) //            Avg. X spins =       0.00E+00
(PID.TID 0000.0001) //         No. Y exchanges =              0
(PID.TID 0000.0001) //            Max. Y spins =              0
(PID.TID 0000.0001) //            Min. Y spins =     1000000000
(PID.TID 0000.0001) //          Total. Y spins =              0
(PID.TID 0000.0001) //            Avg. Y spins =       0.00E+00
(PID.TID 0000.0001) // o Tile number: 000114
(PID.TID 0000.0001) //         No. X exchanges =              0
(PID.TID 0000.0001) //            Max. X spins =              0
(PID.TID 0000.0001) //            Min. X spins =     1000000000
(PID.TID 0000.0001) //          Total. X spins =              0
(PID.TID 0000.0001) //            Avg. X spins =       0.00E+00
(PID.TID 0000.0001) //         No. Y exchanges =              0
(PID.TID 0000.0001) //            Max. Y spins =              0
(PID.TID 0000.0001) //            Min. Y spins =     1000000000
(PID.TID 0000.0001) //          Total. Y spins =              0
(PID.TID 0000.0001) //            Avg. Y spins =       0.00E+00
(PID.TID 0000.0001) // o Tile number: 000115
(PID.TID 0000.0001) //         No. X exchanges =              0
(PID.TID 0000.0001) //            Max. X spins =              0
(PID.TID 0000.0001) //            Min. X spins =     1000000000
(PID.TID 0000.0001) //          Total. X spins =              0
(PID.TID 0000.0001) //            Avg. X spins =       0.00E+00
(PID.TID 0000.0001) //         No. Y exchanges =              0
(PID.TID 0000.0001) //            Max. Y spins =              0
(PID.TID 0000.0001) //            Min. Y spins =     1000000000
(PID.TID 0000.0001) //          Total. Y spins =              0
(PID.TID 0000.0001) //            Avg. Y spins =       0.00E+00
(PID.TID 0000.0001) // o Tile number: 000116
(PID.TID 0000.0001) //         No. X exchanges =              0
(PID.TID 0000.0001) //            Max. X spins =              0
(PID.TID 0000.0001) //            Min. X spins =     1000000000
(PID.TID 0000.0001) //          Total. X spins =              0
(PID.TID 0000.0001) //            Avg. X spins =       0.00E+00
(PID.TID 0000.0001) //         No. Y exchanges =              0
(PID.TID 0000.0001) //            Max. Y spins =              0
(PID.TID 0000.0001) //            Min. Y spins =     1000000000
(PID.TID 0000.0001) //          Total. Y spins =              0
(PID.TID 0000.0001) //            Avg. Y spins =       0.00E+00
(PID.TID 0000.0001) // o Tile number: 000117
(PID.TID 0000.0001) //         No. X exchanges =              0
(PID.TID 0000.0001) //            Max. X spins =              0
(PID.TID 0000.0001) //            Min. X spins =     1000000000
(PID.TID 0000.0001) //          Total. X spins =              0
(PID.TID 0000.0001) //            Avg. X spins =       0.00E+00
(PID.TID 0000.0001) //         No. Y exchanges =              0
(PID.TID 0000.0001) //            Max. Y spins =              0
(PID.TID 0000.0001) //            Min. Y spins =     1000000000
(PID.TID 0000.0001) //          Total. Y spins =              0
(PID.TID 0000.0001) //            Avg. Y spins =       0.00E+00
(PID.TID 0000.0001) // o Tile number: 000118
(PID.TID 0000.0001) //         No. X exchanges =              0
(PID.TID 0000.0001) //            Max. X spins =              0
(PID.TID 0000.0001) //            Min. X spins =     1000000000
(PID.TID 0000.0001) //          Total. X spins =              0
(PID.TID 0000.0001) //            Avg. X spins =       0.00E+00
(PID.TID 0000.0001) //         No. Y exchanges =              0
(PID.TID 0000.0001) //            Max. Y spins =              0
(PID.TID 0000.0001) //            Min. Y spins =     1000000000
(PID.TID 0000.0001) //          Total. Y spins =              0
(PID.TID 0000.0001) //            Avg. Y spins =       0.00E+00
(PID.TID 0000.0001) // o Tile number: 000119
(PID.TID 0000.0001) //         No. X exchanges =              0
(PID.TID 0000.0001) //            Max. X spins =              0
(PID.TID 0000.0001) //            Min. X spins =     1000000000
(PID.TID 0000.0001) //          Total. X spins =              0
(PID.TID 0000.0001) //            Avg. X spins =       0.00E+00
(PID.TID 0000.0001) //         No. Y exchanges =              0
(PID.TID 0000.0001) //            Max. Y spins =              0
(PID.TID 0000.0001) //            Min. Y spins =     1000000000
(PID.TID 0000.0001) //          Total. Y spins =              0
(PID.TID 0000.0001) //            Avg. Y spins =       0.00E+00
(PID.TID 0000.0001) // o Tile number: 000120
(PID.TID 0000.0001) //         No. X exchanges =              0
(PID.TID 0000.0001) //            Max. X spins =              0
(PID.TID 0000.0001) //            Min. X spins =     1000000000
(PID.TID 0000.0001) //          Total. X spins =              0
(PID.TID 0000.0001) //            Avg. X spins =       0.00E+00
(PID.TID 0000.0001) //         No. Y exchanges =              0
(PID.TID 0000.0001) //            Max. Y spins =              0
(PID.TID 0000.0001) //            Min. Y spins =     1000000000
(PID.TID 0000.0001) //          Total. Y spins =              0
(PID.TID 0000.0001) //            Avg. Y spins =       0.00E+00
(PID.TID 0000.0001) // o Tile number: 000121
(PID.TID 0000.0001) //         No. X exchanges =              0
(PID.TID 0000.0001) //            Max. X spins =              0
(PID.TID 0000.0001) //            Min. X spins =     1000000000
(PID.TID 0000.0001) //          Total. X spins =              0
(PID.TID 0000.0001) //            Avg. X spins =       0.00E+00
(PID.TID 0000.0001) //         No. Y exchanges =              0
(PID.TID 0000.0001) //            Max. Y spins =              0
(PID.TID 0000.0001) //            Min. Y spins =     1000000000
(PID.TID 0000.0001) //          Total. Y spins =              0
(PID.TID 0000.0001) //            Avg. Y spins =       0.00E+00
(PID.TID 0000.0001) // o Tile number: 000122
(PID.TID 0000.0001) //         No. X exchanges =              0
(PID.TID 0000.0001) //            Max. X spins =              0
(PID.TID 0000.0001) //            Min. X spins =     1000000000
(PID.TID 0000.0001) //          Total. X spins =              0
(PID.TID 0000.0001) //            Avg. X spins =       0.00E+00
(PID.TID 0000.0001) //         No. Y exchanges =              0
(PID.TID 0000.0001) //            Max. Y spins =              0
(PID.TID 0000.0001) //            Min. Y spins =     1000000000
(PID.TID 0000.0001) //          Total. Y spins =              0
(PID.TID 0000.0001) //            Avg. Y spins =       0.00E+00
(PID.TID 0000.0001) // o Tile number: 000123
(PID.TID 0000.0001) //         No. X exchanges =              0
(PID.TID 0000.0001) //            Max. X spins =              0
(PID.TID 0000.0001) //            Min. X spins =     1000000000
(PID.TID 0000.0001) //          Total. X spins =              0
(PID.TID 0000.0001) //            Avg. X spins =       0.00E+00
(PID.TID 0000.0001) //         No. Y exchanges =              0
(PID.TID 0000.0001) //            Max. Y spins =              0
(PID.TID 0000.0001) //            Min. Y spins =     1000000000
(PID.TID 0000.0001) //          Total. Y spins =              0
(PID.TID 0000.0001) //            Avg. Y spins =       0.00E+00
(PID.TID 0000.0001) // o Tile number: 000124
(PID.TID 0000.0001) //         No. X exchanges =              0
(PID.TID 0000.0001) //            Max. X spins =              0
(PID.TID 0000.0001) //            Min. X spins =     1000000000
(PID.TID 0000.0001) //          Total. X spins =              0
(PID.TID 0000.0001) //            Avg. X spins =       0.00E+00
(PID.TID 0000.0001) //         No. Y exchanges =              0
(PID.TID 0000.0001) //            Max. Y spins =              0
(PID.TID 0000.0001) //            Min. Y spins =     1000000000
(PID.TID 0000.0001) //          Total. Y spins =              0
(PID.TID 0000.0001) //            Avg. Y spins =       0.00E+00
(PID.TID 0000.0001) // o Tile number: 000125
(PID.TID 0000.0001) //         No. X exchanges =              0
(PID.TID 0000.0001) //            Max. X spins =              0
(PID.TID 0000.0001) //            Min. X spins =     1000000000
(PID.TID 0000.0001) //          Total. X spins =              0
(PID.TID 0000.0001) //            Avg. X spins =       0.00E+00
(PID.TID 0000.0001) //         No. Y exchanges =              0
(PID.TID 0000.0001) //            Max. Y spins =              0
(PID.TID 0000.0001) //            Min. Y spins =     1000000000
(PID.TID 0000.0001) //          Total. Y spins =              0
(PID.TID 0000.0001) //            Avg. Y spins =       0.00E+00
(PID.TID 0000.0001) // o Tile number: 000126
(PID.TID 0000.0001) //         No. X exchanges =              0
(PID.TID 0000.0001) //            Max. X spins =              0
(PID.TID 0000.0001) //            Min. X spins =     1000000000
(PID.TID 0000.0001) //          Total. X spins =              0
(PID.TID 0000.0001) //            Avg. X spins =       0.00E+00
(PID.TID 0000.0001) //         No. Y exchanges =              0
(PID.TID 0000.0001) //            Max. Y spins =              0
(PID.TID 0000.0001) //            Min. Y spins =     1000000000
(PID.TID 0000.0001) //          Total. Y spins =              0
(PID.TID 0000.0001) //            Avg. Y spins =       0.00E+00
(PID.TID 0000.0001) // o Tile number: 000127
(PID.TID 0000.0001) //         No. X exchanges =              0
(PID.TID 0000.0001) //            Max. X spins =              0
(PID.TID 0000.0001) //            Min. X spins =     1000000000
(PID.TID 0000.0001) //          Total. X spins =              0
(PID.TID 0000.0001) //            Avg. X spins =       0.00E+00
(PID.TID 0000.0001) //         No. Y exchanges =              0
(PID.TID 0000.0001) //            Max. Y spins =              0
(PID.TID 0000.0001) //            Min. Y spins =     1000000000
(PID.TID 0000.0001) //          Total. Y spins =              0
(PID.TID 0000.0001) //            Avg. Y spins =       0.00E+00
(PID.TID 0000.0001) // o Tile number: 000128
(PID.TID 0000.0001) //         No. X exchanges =              0
(PID.TID 0000.0001) //            Max. X spins =              0
(PID.TID 0000.0001) //            Min. X spins =     1000000000
(PID.TID 0000.0001) //          Total. X spins =              0
(PID.TID 0000.0001) //            Avg. X spins =       0.00E+00
(PID.TID 0000.0001) //         No. Y exchanges =              0
(PID.TID 0000.0001) //            Max. Y spins =              0
(PID.TID 0000.0001) //            Min. Y spins =     1000000000
(PID.TID 0000.0001) //          Total. Y spins =              0
(PID.TID 0000.0001) //            Avg. Y spins =       0.00E+00
(PID.TID 0000.0001) // o Tile number: 000129
(PID.TID 0000.0001) //         No. X exchanges =              0
(PID.TID 0000.0001) //            Max. X spins =              0
(PID.TID 0000.0001) //            Min. X spins =     1000000000
(PID.TID 0000.0001) //          Total. X spins =              0
(PID.TID 0000.0001) //            Avg. X spins =       0.00E+00
(PID.TID 0000.0001) //         No. Y exchanges =              0
(PID.TID 0000.0001) //            Max. Y spins =              0
(PID.TID 0000.0001) //            Min. Y spins =     1000000000
(PID.TID 0000.0001) //          Total. Y spins =              0
(PID.TID 0000.0001) //            Avg. Y spins =       0.00E+00
(PID.TID 0000.0001) // o Tile number: 000130
(PID.TID 0000.0001) //         No. X exchanges =              0
(PID.TID 0000.0001) //            Max. X spins =              0
(PID.TID 0000.0001) //            Min. X spins =     1000000000
(PID.TID 0000.0001) //          Total. X spins =              0
(PID.TID 0000.0001) //            Avg. X spins =       0.00E+00
(PID.TID 0000.0001) //         No. Y exchanges =              0
(PID.TID 0000.0001) //            Max. Y spins =              0
(PID.TID 0000.0001) //            Min. Y spins =     1000000000
(PID.TID 0000.0001) //          Total. Y spins =              0
(PID.TID 0000.0001) //            Avg. Y spins =       0.00E+00
(PID.TID 0000.0001) // o Tile number: 000131
(PID.TID 0000.0001) //         No. X exchanges =              0
(PID.TID 0000.0001) //            Max. X spins =              0
(PID.TID 0000.0001) //            Min. X spins =     1000000000
(PID.TID 0000.0001) //          Total. X spins =              0
(PID.TID 0000.0001) //            Avg. X spins =       0.00E+00
(PID.TID 0000.0001) //         No. Y exchanges =              0
(PID.TID 0000.0001) //            Max. Y spins =              0
(PID.TID 0000.0001) //            Min. Y spins =     1000000000
(PID.TID 0000.0001) //          Total. Y spins =              0
(PID.TID 0000.0001) //            Avg. Y spins =       0.00E+00
(PID.TID 0000.0001) // o Tile number: 000132
(PID.TID 0000.0001) //         No. X exchanges =              0
(PID.TID 0000.0001) //            Max. X spins =              0
(PID.TID 0000.0001) //            Min. X spins =     1000000000
(PID.TID 0000.0001) //          Total. X spins =              0
(PID.TID 0000.0001) //            Avg. X spins =       0.00E+00
(PID.TID 0000.0001) //         No. Y exchanges =              0
(PID.TID 0000.0001) //            Max. Y spins =              0
(PID.TID 0000.0001) //            Min. Y spins =     1000000000
(PID.TID 0000.0001) //          Total. Y spins =              0
(PID.TID 0000.0001) //            Avg. Y spins =       0.00E+00
(PID.TID 0000.0001) // o Tile number: 000133
(PID.TID 0000.0001) //         No. X exchanges =              0
(PID.TID 0000.0001) //            Max. X spins =              0
(PID.TID 0000.0001) //            Min. X spins =     1000000000
(PID.TID 0000.0001) //          Total. X spins =              0
(PID.TID 0000.0001) //            Avg. X spins =       0.00E+00
(PID.TID 0000.0001) //         No. Y exchanges =              0
(PID.TID 0000.0001) //            Max. Y spins =              0
(PID.TID 0000.0001) //            Min. Y spins =     1000000000
(PID.TID 0000.0001) //          Total. Y spins =              0
(PID.TID 0000.0001) //            Avg. Y spins =       0.00E+00
(PID.TID 0000.0001) // o Tile number: 000134
(PID.TID 0000.0001) //         No. X exchanges =              0
(PID.TID 0000.0001) //            Max. X spins =              0
(PID.TID 0000.0001) //            Min. X spins =     1000000000
(PID.TID 0000.0001) //          Total. X spins =              0
(PID.TID 0000.0001) //            Avg. X spins =       0.00E+00
(PID.TID 0000.0001) //         No. Y exchanges =              0
(PID.TID 0000.0001) //            Max. Y spins =              0
(PID.TID 0000.0001) //            Min. Y spins =     1000000000
(PID.TID 0000.0001) //          Total. Y spins =              0
(PID.TID 0000.0001) //            Avg. Y spins =       0.00E+00
(PID.TID 0000.0001) // o Tile number: 000135
(PID.TID 0000.0001) //         No. X exchanges =              0
(PID.TID 0000.0001) //            Max. X spins =              0
(PID.TID 0000.0001) //            Min. X spins =     1000000000
(PID.TID 0000.0001) //          Total. X spins =              0
(PID.TID 0000.0001) //            Avg. X spins =       0.00E+00
(PID.TID 0000.0001) //         No. Y exchanges =              0
(PID.TID 0000.0001) //            Max. Y spins =              0
(PID.TID 0000.0001) //            Min. Y spins =     1000000000
(PID.TID 0000.0001) //          Total. Y spins =              0
(PID.TID 0000.0001) //            Avg. Y spins =       0.00E+00
(PID.TID 0000.0001) // o Tile number: 000136
(PID.TID 0000.0001) //         No. X exchanges =              0
(PID.TID 0000.0001) //            Max. X spins =              0
(PID.TID 0000.0001) //            Min. X spins =     1000000000
(PID.TID 0000.0001) //          Total. X spins =              0
(PID.TID 0000.0001) //            Avg. X spins =       0.00E+00
(PID.TID 0000.0001) //         No. Y exchanges =              0
(PID.TID 0000.0001) //            Max. Y spins =              0
(PID.TID 0000.0001) //            Min. Y spins =     1000000000
(PID.TID 0000.0001) //          Total. Y spins =              0
(PID.TID 0000.0001) //            Avg. Y spins =       0.00E+00
(PID.TID 0000.0001) // o Tile number: 000137
(PID.TID 0000.0001) //         No. X exchanges =              0
(PID.TID 0000.0001) //            Max. X spins =              0
(PID.TID 0000.0001) //            Min. X spins =     1000000000
(PID.TID 0000.0001) //          Total. X spins =              0
(PID.TID 0000.0001) //            Avg. X spins =       0.00E+00
(PID.TID 0000.0001) //         No. Y exchanges =              0
(PID.TID 0000.0001) //            Max. Y spins =              0
(PID.TID 0000.0001) //            Min. Y spins =     1000000000
(PID.TID 0000.0001) //          Total. Y spins =              0
(PID.TID 0000.0001) //            Avg. Y spins =       0.00E+00
(PID.TID 0000.0001) // o Tile number: 000138
(PID.TID 0000.0001) //         No. X exchanges =              0
(PID.TID 0000.0001) //            Max. X spins =              0
(PID.TID 0000.0001) //            Min. X spins =     1000000000
(PID.TID 0000.0001) //          Total. X spins =              0
(PID.TID 0000.0001) //            Avg. X spins =       0.00E+00
(PID.TID 0000.0001) //         No. Y exchanges =              0
(PID.TID 0000.0001) //            Max. Y spins =              0
(PID.TID 0000.0001) //            Min. Y spins =     1000000000
(PID.TID 0000.0001) //          Total. Y spins =              0
(PID.TID 0000.0001) //            Avg. Y spins =       0.00E+00
(PID.TID 0000.0001) // o Tile number: 000139
(PID.TID 0000.0001) //         No. X exchanges =              0
(PID.TID 0000.0001) //            Max. X spins =              0
(PID.TID 0000.0001) //            Min. X spins =     1000000000
(PID.TID 0000.0001) //          Total. X spins =              0
(PID.TID 0000.0001) //            Avg. X spins =       0.00E+00
(PID.TID 0000.0001) //         No. Y exchanges =              0
(PID.TID 0000.0001) //            Max. Y spins =              0
(PID.TID 0000.0001) //            Min. Y spins =     1000000000
(PID.TID 0000.0001) //          Total. Y spins =              0
(PID.TID 0000.0001) //            Avg. Y spins =       0.00E+00
(PID.TID 0000.0001) // o Tile number: 000140
(PID.TID 0000.0001) //         No. X exchanges =              0
(PID.TID 0000.0001) //            Max. X spins =              0
(PID.TID 0000.0001) //            Min. X spins =     1000000000
(PID.TID 0000.0001) //          Total. X spins =              0
(PID.TID 0000.0001) //            Avg. X spins =       0.00E+00
(PID.TID 0000.0001) //         No. Y exchanges =              0
(PID.TID 0000.0001) //            Max. Y spins =              0
(PID.TID 0000.0001) //            Min. Y spins =     1000000000
(PID.TID 0000.0001) //          Total. Y spins =              0
(PID.TID 0000.0001) //            Avg. Y spins =       0.00E+00
(PID.TID 0000.0001) // o Tile number: 000141
(PID.TID 0000.0001) //         No. X exchanges =              0
(PID.TID 0000.0001) //            Max. X spins =              0
(PID.TID 0000.0001) //            Min. X spins =     1000000000
(PID.TID 0000.0001) //          Total. X spins =              0
(PID.TID 0000.0001) //            Avg. X spins =       0.00E+00
(PID.TID 0000.0001) //         No. Y exchanges =              0
(PID.TID 0000.0001) //            Max. Y spins =              0
(PID.TID 0000.0001) //            Min. Y spins =     1000000000
(PID.TID 0000.0001) //          Total. Y spins =              0
(PID.TID 0000.0001) //            Avg. Y spins =       0.00E+00
(PID.TID 0000.0001) // o Tile number: 000142
(PID.TID 0000.0001) //         No. X exchanges =              0
(PID.TID 0000.0001) //            Max. X spins =              0
(PID.TID 0000.0001) //            Min. X spins =     1000000000
(PID.TID 0000.0001) //          Total. X spins =              0
(PID.TID 0000.0001) //            Avg. X spins =       0.00E+00
(PID.TID 0000.0001) //         No. Y exchanges =              0
(PID.TID 0000.0001) //            Max. Y spins =              0
(PID.TID 0000.0001) //            Min. Y spins =     1000000000
(PID.TID 0000.0001) //          Total. Y spins =              0
(PID.TID 0000.0001) //            Avg. Y spins =       0.00E+00
(PID.TID 0000.0001) // o Tile number: 000143
(PID.TID 0000.0001) //         No. X exchanges =              0
(PID.TID 0000.0001) //            Max. X spins =              0
(PID.TID 0000.0001) //            Min. X spins =     1000000000
(PID.TID 0000.0001) //          Total. X spins =              0
(PID.TID 0000.0001) //            Avg. X spins =       0.00E+00
(PID.TID 0000.0001) //         No. Y exchanges =              0
(PID.TID 0000.0001) //            Max. Y spins =              0
(PID.TID 0000.0001) //            Min. Y spins =     1000000000
(PID.TID 0000.0001) //          Total. Y spins =              0
(PID.TID 0000.0001) //            Avg. Y spins =       0.00E+00
(PID.TID 0000.0001) // o Tile number: 000144
(PID.TID 0000.0001) //         No. X exchanges =              0
(PID.TID 0000.0001) //            Max. X spins =              0
(PID.TID 0000.0001) //            Min. X spins =     1000000000
(PID.TID 0000.0001) //          Total. X spins =              0
(PID.TID 0000.0001) //            Avg. X spins =       0.00E+00
(PID.TID 0000.0001) //         No. Y exchanges =              0
(PID.TID 0000.0001) //            Max. Y spins =              0
(PID.TID 0000.0001) //            Min. Y spins =     1000000000
(PID.TID 0000.0001) //          Total. Y spins =              0
(PID.TID 0000.0001) //            Avg. Y spins =       0.00E+00
(PID.TID 0000.0001) // o Tile number: 000145
(PID.TID 0000.0001) //         No. X exchanges =              0
(PID.TID 0000.0001) //            Max. X spins =              0
(PID.TID 0000.0001) //            Min. X spins =     1000000000
(PID.TID 0000.0001) //          Total. X spins =              0
(PID.TID 0000.0001) //            Avg. X spins =       0.00E+00
(PID.TID 0000.0001) //         No. Y exchanges =              0
(PID.TID 0000.0001) //            Max. Y spins =              0
(PID.TID 0000.0001) //            Min. Y spins =     1000000000
(PID.TID 0000.0001) //          Total. Y spins =              0
(PID.TID 0000.0001) //            Avg. Y spins =       0.00E+00
(PID.TID 0000.0001) // o Tile number: 000146
(PID.TID 0000.0001) //         No. X exchanges =              0
(PID.TID 0000.0001) //            Max. X spins =              0
(PID.TID 0000.0001) //            Min. X spins =     1000000000
(PID.TID 0000.0001) //          Total. X spins =              0
(PID.TID 0000.0001) //            Avg. X spins =       0.00E+00
(PID.TID 0000.0001) //         No. Y exchanges =              0
(PID.TID 0000.0001) //            Max. Y spins =              0
(PID.TID 0000.0001) //            Min. Y spins =     1000000000
(PID.TID 0000.0001) //          Total. Y spins =              0
(PID.TID 0000.0001) //            Avg. Y spins =       0.00E+00
(PID.TID 0000.0001) // o Tile number: 000147
(PID.TID 0000.0001) //         No. X exchanges =              0
(PID.TID 0000.0001) //            Max. X spins =              0
(PID.TID 0000.0001) //            Min. X spins =     1000000000
(PID.TID 0000.0001) //          Total. X spins =              0
(PID.TID 0000.0001) //            Avg. X spins =       0.00E+00
(PID.TID 0000.0001) //         No. Y exchanges =              0
(PID.TID 0000.0001) //            Max. Y spins =              0
(PID.TID 0000.0001) //            Min. Y spins =     1000000000
(PID.TID 0000.0001) //          Total. Y spins =              0
(PID.TID 0000.0001) //            Avg. Y spins =       0.00E+00
(PID.TID 0000.0001) // o Tile number: 000148
(PID.TID 0000.0001) //         No. X exchanges =              0
(PID.TID 0000.0001) //            Max. X spins =              0
(PID.TID 0000.0001) //            Min. X spins =     1000000000
(PID.TID 0000.0001) //          Total. X spins =              0
(PID.TID 0000.0001) //            Avg. X spins =       0.00E+00
(PID.TID 0000.0001) //         No. Y exchanges =              0
(PID.TID 0000.0001) //            Max. Y spins =              0
(PID.TID 0000.0001) //            Min. Y spins =     1000000000
(PID.TID 0000.0001) //          Total. Y spins =              0
(PID.TID 0000.0001) //            Avg. Y spins =       0.00E+00
(PID.TID 0000.0001) // o Tile number: 000149
(PID.TID 0000.0001) //         No. X exchanges =              0
(PID.TID 0000.0001) //            Max. X spins =              0
(PID.TID 0000.0001) //            Min. X spins =     1000000000
(PID.TID 0000.0001) //          Total. X spins =              0
(PID.TID 0000.0001) //            Avg. X spins =       0.00E+00
(PID.TID 0000.0001) //         No. Y exchanges =              0
(PID.TID 0000.0001) //            Max. Y spins =              0
(PID.TID 0000.0001) //            Min. Y spins =     1000000000
(PID.TID 0000.0001) //          Total. Y spins =              0
(PID.TID 0000.0001) //            Avg. Y spins =       0.00E+00
(PID.TID 0000.0001) // o Tile number: 000150
(PID.TID 0000.0001) //         No. X exchanges =              0
(PID.TID 0000.0001) //            Max. X spins =              0
(PID.TID 0000.0001) //            Min. X spins =     1000000000
(PID.TID 0000.0001) //          Total. X spins =              0
(PID.TID 0000.0001) //            Avg. X spins =       0.00E+00
(PID.TID 0000.0001) //         No. Y exchanges =              0
(PID.TID 0000.0001) //            Max. Y spins =              0
(PID.TID 0000.0001) //            Min. Y spins =     1000000000
(PID.TID 0000.0001) //          Total. Y spins =              0
(PID.TID 0000.0001) //            Avg. Y spins =       0.00E+00
(PID.TID 0000.0001) // o Tile number: 000151
(PID.TID 0000.0001) //         No. X exchanges =              0
(PID.TID 0000.0001) //            Max. X spins =              0
(PID.TID 0000.0001) //            Min. X spins =     1000000000
(PID.TID 0000.0001) //          Total. X spins =              0
(PID.TID 0000.0001) //            Avg. X spins =       0.00E+00
(PID.TID 0000.0001) //         No. Y exchanges =              0
(PID.TID 0000.0001) //            Max. Y spins =              0
(PID.TID 0000.0001) //            Min. Y spins =     1000000000
(PID.TID 0000.0001) //          Total. Y spins =              0
(PID.TID 0000.0001) //            Avg. Y spins =       0.00E+00
(PID.TID 0000.0001) // o Tile number: 000152
(PID.TID 0000.0001) //         No. X exchanges =              0
(PID.TID 0000.0001) //            Max. X spins =              0
(PID.TID 0000.0001) //            Min. X spins =     1000000000
(PID.TID 0000.0001) //          Total. X spins =              0
(PID.TID 0000.0001) //            Avg. X spins =       0.00E+00
(PID.TID 0000.0001) //         No. Y exchanges =              0
(PID.TID 0000.0001) //            Max. Y spins =              0
(PID.TID 0000.0001) //            Min. Y spins =     1000000000
(PID.TID 0000.0001) //          Total. Y spins =              0
(PID.TID 0000.0001) //            Avg. Y spins =       0.00E+00
(PID.TID 0000.0001) // o Tile number: 000153
(PID.TID 0000.0001) //         No. X exchanges =              0
(PID.TID 0000.0001) //            Max. X spins =              0
(PID.TID 0000.0001) //            Min. X spins =     1000000000
(PID.TID 0000.0001) //          Total. X spins =              0
(PID.TID 0000.0001) //            Avg. X spins =       0.00E+00
(PID.TID 0000.0001) //         No. Y exchanges =              0
(PID.TID 0000.0001) //            Max. Y spins =              0
(PID.TID 0000.0001) //            Min. Y spins =     1000000000
(PID.TID 0000.0001) //          Total. Y spins =              0
(PID.TID 0000.0001) //            Avg. Y spins =       0.00E+00
(PID.TID 0000.0001) // o Tile number: 000154
(PID.TID 0000.0001) //         No. X exchanges =              0
(PID.TID 0000.0001) //            Max. X spins =              0
(PID.TID 0000.0001) //            Min. X spins =     1000000000
(PID.TID 0000.0001) //          Total. X spins =              0
(PID.TID 0000.0001) //            Avg. X spins =       0.00E+00
(PID.TID 0000.0001) //         No. Y exchanges =              0
(PID.TID 0000.0001) //            Max. Y spins =              0
(PID.TID 0000.0001) //            Min. Y spins =     1000000000
(PID.TID 0000.0001) //          Total. Y spins =              0
(PID.TID 0000.0001) //            Avg. Y spins =       0.00E+00
(PID.TID 0000.0001) // o Tile number: 000155
(PID.TID 0000.0001) //         No. X exchanges =              0
(PID.TID 0000.0001) //            Max. X spins =              0
(PID.TID 0000.0001) //            Min. X spins =     1000000000
(PID.TID 0000.0001) //          Total. X spins =              0
(PID.TID 0000.0001) //            Avg. X spins =       0.00E+00
(PID.TID 0000.0001) //         No. Y exchanges =              0
(PID.TID 0000.0001) //            Max. Y spins =              0
(PID.TID 0000.0001) //            Min. Y spins =     1000000000
(PID.TID 0000.0001) //          Total. Y spins =              0
(PID.TID 0000.0001) //            Avg. Y spins =       0.00E+00
(PID.TID 0000.0001) // o Tile number: 000156
(PID.TID 0000.0001) //         No. X exchanges =              0
(PID.TID 0000.0001) //            Max. X spins =              0
(PID.TID 0000.0001) //            Min. X spins =     1000000000
(PID.TID 0000.0001) //          Total. X spins =              0
(PID.TID 0000.0001) //            Avg. X spins =       0.00E+00
(PID.TID 0000.0001) //         No. Y exchanges =              0
(PID.TID 0000.0001) //            Max. Y spins =              0
(PID.TID 0000.0001) //            Min. Y spins =     1000000000
(PID.TID 0000.0001) //          Total. Y spins =              0
(PID.TID 0000.0001) //            Avg. Y spins =       0.00E+00
(PID.TID 0000.0001) // o Tile number: 000157
(PID.TID 0000.0001) //         No. X exchanges =              0
(PID.TID 0000.0001) //            Max. X spins =              0
(PID.TID 0000.0001) //            Min. X spins =     1000000000
(PID.TID 0000.0001) //          Total. X spins =              0
(PID.TID 0000.0001) //            Avg. X spins =       0.00E+00
(PID.TID 0000.0001) //         No. Y exchanges =              0
(PID.TID 0000.0001) //            Max. Y spins =              0
(PID.TID 0000.0001) //            Min. Y spins =     1000000000
(PID.TID 0000.0001) //          Total. Y spins =              0
(PID.TID 0000.0001) //            Avg. Y spins =       0.00E+00
(PID.TID 0000.0001) // o Tile number: 000158
(PID.TID 0000.0001) //         No. X exchanges =              0
(PID.TID 0000.0001) //            Max. X spins =              0
(PID.TID 0000.0001) //            Min. X spins =     1000000000
(PID.TID 0000.0001) //          Total. X spins =              0
(PID.TID 0000.0001) //            Avg. X spins =       0.00E+00
(PID.TID 0000.0001) //         No. Y exchanges =              0
(PID.TID 0000.0001) //            Max. Y spins =              0
(PID.TID 0000.0001) //            Min. Y spins =     1000000000
(PID.TID 0000.0001) //          Total. Y spins =              0
(PID.TID 0000.0001) //            Avg. Y spins =       0.00E+00
(PID.TID 0000.0001) // o Tile number: 000159
(PID.TID 0000.0001) //         No. X exchanges =              0
(PID.TID 0000.0001) //            Max. X spins =              0
(PID.TID 0000.0001) //            Min. X spins =     1000000000
(PID.TID 0000.0001) //          Total. X spins =              0
(PID.TID 0000.0001) //            Avg. X spins =       0.00E+00
(PID.TID 0000.0001) //         No. Y exchanges =              0
(PID.TID 0000.0001) //            Max. Y spins =              0
(PID.TID 0000.0001) //            Min. Y spins =     1000000000
(PID.TID 0000.0001) //          Total. Y spins =              0
(PID.TID 0000.0001) //            Avg. Y spins =       0.00E+00
(PID.TID 0000.0001) // o Tile number: 000160
(PID.TID 0000.0001) //         No. X exchanges =              0
(PID.TID 0000.0001) //            Max. X spins =              0
(PID.TID 0000.0001) //            Min. X spins =     1000000000
(PID.TID 0000.0001) //          Total. X spins =              0
(PID.TID 0000.0001) //            Avg. X spins =       0.00E+00
(PID.TID 0000.0001) //         No. Y exchanges =              0
(PID.TID 0000.0001) //            Max. Y spins =              0
(PID.TID 0000.0001) //            Min. Y spins =     1000000000
(PID.TID 0000.0001) //          Total. Y spins =              0
(PID.TID 0000.0001) //            Avg. Y spins =       0.00E+00
(PID.TID 0000.0001) // o Tile number: 000161
(PID.TID 0000.0001) //         No. X exchanges =              0
(PID.TID 0000.0001) //            Max. X spins =              0
(PID.TID 0000.0001) //            Min. X spins =     1000000000
(PID.TID 0000.0001) //          Total. X spins =              0
(PID.TID 0000.0001) //            Avg. X spins =       0.00E+00
(PID.TID 0000.0001) //         No. Y exchanges =              0
(PID.TID 0000.0001) //            Max. Y spins =              0
(PID.TID 0000.0001) //            Min. Y spins =     1000000000
(PID.TID 0000.0001) //          Total. Y spins =              0
(PID.TID 0000.0001) //            Avg. Y spins =       0.00E+00
(PID.TID 0000.0001) // o Tile number: 000162
(PID.TID 0000.0001) //         No. X exchanges =              0
(PID.TID 0000.0001) //            Max. X spins =              0
(PID.TID 0000.0001) //            Min. X spins =     1000000000
(PID.TID 0000.0001) //          Total. X spins =              0
(PID.TID 0000.0001) //            Avg. X spins =       0.00E+00
(PID.TID 0000.0001) //         No. Y exchanges =              0
(PID.TID 0000.0001) //            Max. Y spins =              0
(PID.TID 0000.0001) //            Min. Y spins =     1000000000
(PID.TID 0000.0001) //          Total. Y spins =              0
(PID.TID 0000.0001) //            Avg. Y spins =       0.00E+00
(PID.TID 0000.0001) // o Tile number: 000163
(PID.TID 0000.0001) //         No. X exchanges =              0
(PID.TID 0000.0001) //            Max. X spins =              0
(PID.TID 0000.0001) //            Min. X spins =     1000000000
(PID.TID 0000.0001) //          Total. X spins =              0
(PID.TID 0000.0001) //            Avg. X spins =       0.00E+00
(PID.TID 0000.0001) //         No. Y exchanges =              0
(PID.TID 0000.0001) //            Max. Y spins =              0
(PID.TID 0000.0001) //            Min. Y spins =     1000000000
(PID.TID 0000.0001) //          Total. Y spins =              0
(PID.TID 0000.0001) //            Avg. Y spins =       0.00E+00
(PID.TID 0000.0001) // o Tile number: 000164
(PID.TID 0000.0001) //         No. X exchanges =              0
(PID.TID 0000.0001) //            Max. X spins =              0
(PID.TID 0000.0001) //            Min. X spins =     1000000000
(PID.TID 0000.0001) //          Total. X spins =              0
(PID.TID 0000.0001) //            Avg. X spins =       0.00E+00
(PID.TID 0000.0001) //         No. Y exchanges =              0
(PID.TID 0000.0001) //            Max. Y spins =              0
(PID.TID 0000.0001) //            Min. Y spins =     1000000000
(PID.TID 0000.0001) //          Total. Y spins =              0
(PID.TID 0000.0001) //            Avg. Y spins =       0.00E+00
(PID.TID 0000.0001) // o Tile number: 000165
(PID.TID 0000.0001) //         No. X exchanges =              0
(PID.TID 0000.0001) //            Max. X spins =              0
(PID.TID 0000.0001) //            Min. X spins =     1000000000
(PID.TID 0000.0001) //          Total. X spins =              0
(PID.TID 0000.0001) //            Avg. X spins =       0.00E+00
(PID.TID 0000.0001) //         No. Y exchanges =              0
(PID.TID 0000.0001) //            Max. Y spins =              0
(PID.TID 0000.0001) //            Min. Y spins =     1000000000
(PID.TID 0000.0001) //          Total. Y spins =              0
(PID.TID 0000.0001) //            Avg. Y spins =       0.00E+00
(PID.TID 0000.0001) // o Tile number: 000166
(PID.TID 0000.0001) //         No. X exchanges =              0
(PID.TID 0000.0001) //            Max. X spins =              0
(PID.TID 0000.0001) //            Min. X spins =     1000000000
(PID.TID 0000.0001) //          Total. X spins =              0
(PID.TID 0000.0001) //            Avg. X spins =       0.00E+00
(PID.TID 0000.0001) //         No. Y exchanges =              0
(PID.TID 0000.0001) //            Max. Y spins =              0
(PID.TID 0000.0001) //            Min. Y spins =     1000000000
(PID.TID 0000.0001) //          Total. Y spins =              0
(PID.TID 0000.0001) //            Avg. Y spins =       0.00E+00
(PID.TID 0000.0001) // o Tile number: 000167
(PID.TID 0000.0001) //         No. X exchanges =              0
(PID.TID 0000.0001) //            Max. X spins =              0
(PID.TID 0000.0001) //            Min. X spins =     1000000000
(PID.TID 0000.0001) //          Total. X spins =              0
(PID.TID 0000.0001) //            Avg. X spins =       0.00E+00
(PID.TID 0000.0001) //         No. Y exchanges =              0
(PID.TID 0000.0001) //            Max. Y spins =              0
(PID.TID 0000.0001) //            Min. Y spins =     1000000000
(PID.TID 0000.0001) //          Total. Y spins =              0
(PID.TID 0000.0001) //            Avg. Y spins =       0.00E+00
(PID.TID 0000.0001) // o Tile number: 000168
(PID.TID 0000.0001) //         No. X exchanges =              0
(PID.TID 0000.0001) //            Max. X spins =              0
(PID.TID 0000.0001) //            Min. X spins =     1000000000
(PID.TID 0000.0001) //          Total. X spins =              0
(PID.TID 0000.0001) //            Avg. X spins =       0.00E+00
(PID.TID 0000.0001) //         No. Y exchanges =              0
(PID.TID 0000.0001) //            Max. Y spins =              0
(PID.TID 0000.0001) //            Min. Y spins =     1000000000
(PID.TID 0000.0001) //          Total. Y spins =              0
(PID.TID 0000.0001) //            Avg. Y spins =       0.00E+00
(PID.TID 0000.0001) // o Tile number: 000169
(PID.TID 0000.0001) //         No. X exchanges =              0
(PID.TID 0000.0001) //            Max. X spins =              0
(PID.TID 0000.0001) //            Min. X spins =     1000000000
(PID.TID 0000.0001) //          Total. X spins =              0
(PID.TID 0000.0001) //            Avg. X spins =       0.00E+00
(PID.TID 0000.0001) //         No. Y exchanges =              0
(PID.TID 0000.0001) //            Max. Y spins =              0
(PID.TID 0000.0001) //            Min. Y spins =     1000000000
(PID.TID 0000.0001) //          Total. Y spins =              0
(PID.TID 0000.0001) //            Avg. Y spins =       0.00E+00
(PID.TID 0000.0001) // o Tile number: 000170
(PID.TID 0000.0001) //         No. X exchanges =              0
(PID.TID 0000.0001) //            Max. X spins =              0
(PID.TID 0000.0001) //            Min. X spins =     1000000000
(PID.TID 0000.0001) //          Total. X spins =              0
(PID.TID 0000.0001) //            Avg. X spins =       0.00E+00
(PID.TID 0000.0001) //         No. Y exchanges =              0
(PID.TID 0000.0001) //            Max. Y spins =              0
(PID.TID 0000.0001) //            Min. Y spins =     1000000000
(PID.TID 0000.0001) //          Total. Y spins =              0
(PID.TID 0000.0001) //            Avg. Y spins =       0.00E+00
(PID.TID 0000.0001) // o Tile number: 000171
(PID.TID 0000.0001) //         No. X exchanges =              0
(PID.TID 0000.0001) //            Max. X spins =              0
(PID.TID 0000.0001) //            Min. X spins =     1000000000
(PID.TID 0000.0001) //          Total. X spins =              0
(PID.TID 0000.0001) //            Avg. X spins =       0.00E+00
(PID.TID 0000.0001) //         No. Y exchanges =              0
(PID.TID 0000.0001) //            Max. Y spins =              0
(PID.TID 0000.0001) //            Min. Y spins =     1000000000
(PID.TID 0000.0001) //          Total. Y spins =              0
(PID.TID 0000.0001) //            Avg. Y spins =       0.00E+00
(PID.TID 0000.0001) // o Tile number: 000172
(PID.TID 0000.0001) //         No. X exchanges =              0
(PID.TID 0000.0001) //            Max. X spins =              0
(PID.TID 0000.0001) //            Min. X spins =     1000000000
(PID.TID 0000.0001) //          Total. X spins =              0
(PID.TID 0000.0001) //            Avg. X spins =       0.00E+00
(PID.TID 0000.0001) //         No. Y exchanges =              0
(PID.TID 0000.0001) //            Max. Y spins =              0
(PID.TID 0000.0001) //            Min. Y spins =     1000000000
(PID.TID 0000.0001) //          Total. Y spins =              0
(PID.TID 0000.0001) //            Avg. Y spins =       0.00E+00
(PID.TID 0000.0001) // o Tile number: 000173
(PID.TID 0000.0001) //         No. X exchanges =              0
(PID.TID 0000.0001) //            Max. X spins =              0
(PID.TID 0000.0001) //            Min. X spins =     1000000000
(PID.TID 0000.0001) //          Total. X spins =              0
(PID.TID 0000.0001) //            Avg. X spins =       0.00E+00
(PID.TID 0000.0001) //         No. Y exchanges =              0
(PID.TID 0000.0001) //            Max. Y spins =              0
(PID.TID 0000.0001) //            Min. Y spins =     1000000000
(PID.TID 0000.0001) //          Total. Y spins =              0
(PID.TID 0000.0001) //            Avg. Y spins =       0.00E+00
(PID.TID 0000.0001) // o Tile number: 000174
(PID.TID 0000.0001) //         No. X exchanges =              0
(PID.TID 0000.0001) //            Max. X spins =              0
(PID.TID 0000.0001) //            Min. X spins =     1000000000
(PID.TID 0000.0001) //          Total. X spins =              0
(PID.TID 0000.0001) //            Avg. X spins =       0.00E+00
(PID.TID 0000.0001) //         No. Y exchanges =              0
(PID.TID 0000.0001) //            Max. Y spins =              0
(PID.TID 0000.0001) //            Min. Y spins =     1000000000
(PID.TID 0000.0001) //          Total. Y spins =              0
(PID.TID 0000.0001) //            Avg. Y spins =       0.00E+00
(PID.TID 0000.0001) // o Tile number: 000175
(PID.TID 0000.0001) //         No. X exchanges =              0
(PID.TID 0000.0001) //            Max. X spins =              0
(PID.TID 0000.0001) //            Min. X spins =     1000000000
(PID.TID 0000.0001) //          Total. X spins =              0
(PID.TID 0000.0001) //            Avg. X spins =       0.00E+00
(PID.TID 0000.0001) //         No. Y exchanges =              0
(PID.TID 0000.0001) //            Max. Y spins =              0
(PID.TID 0000.0001) //            Min. Y spins =     1000000000
(PID.TID 0000.0001) //          Total. Y spins =              0
(PID.TID 0000.0001) //            Avg. Y spins =       0.00E+00
(PID.TID 0000.0001) // o Tile number: 000176
(PID.TID 0000.0001) //         No. X exchanges =              0
(PID.TID 0000.0001) //            Max. X spins =              0
(PID.TID 0000.0001) //            Min. X spins =     1000000000
(PID.TID 0000.0001) //          Total. X spins =              0
(PID.TID 0000.0001) //            Avg. X spins =       0.00E+00
(PID.TID 0000.0001) //         No. Y exchanges =              0
(PID.TID 0000.0001) //            Max. Y spins =              0
(PID.TID 0000.0001) //            Min. Y spins =     1000000000
(PID.TID 0000.0001) //          Total. Y spins =              0
(PID.TID 0000.0001) //            Avg. Y spins =       0.00E+00
(PID.TID 0000.0001) // o Tile number: 000177
(PID.TID 0000.0001) //         No. X exchanges =              0
(PID.TID 0000.0001) //            Max. X spins =              0
(PID.TID 0000.0001) //            Min. X spins =     1000000000
(PID.TID 0000.0001) //          Total. X spins =              0
(PID.TID 0000.0001) //            Avg. X spins =       0.00E+00
(PID.TID 0000.0001) //         No. Y exchanges =              0
(PID.TID 0000.0001) //            Max. Y spins =              0
(PID.TID 0000.0001) //            Min. Y spins =     1000000000
(PID.TID 0000.0001) //          Total. Y spins =              0
(PID.TID 0000.0001) //            Avg. Y spins =       0.00E+00
(PID.TID 0000.0001) // o Tile number: 000178
(PID.TID 0000.0001) //         No. X exchanges =              0
(PID.TID 0000.0001) //            Max. X spins =              0
(PID.TID 0000.0001) //            Min. X spins =     1000000000
(PID.TID 0000.0001) //          Total. X spins =              0
(PID.TID 0000.0001) //            Avg. X spins =       0.00E+00
(PID.TID 0000.0001) //         No. Y exchanges =              0
(PID.TID 0000.0001) //            Max. Y spins =              0
(PID.TID 0000.0001) //            Min. Y spins =     1000000000
(PID.TID 0000.0001) //          Total. Y spins =              0
(PID.TID 0000.0001) //            Avg. Y spins =       0.00E+00
(PID.TID 0000.0001) // o Tile number: 000179
(PID.TID 0000.0001) //         No. X exchanges =              0
(PID.TID 0000.0001) //            Max. X spins =              0
(PID.TID 0000.0001) //            Min. X spins =     1000000000
(PID.TID 0000.0001) //          Total. X spins =              0
(PID.TID 0000.0001) //            Avg. X spins =       0.00E+00
(PID.TID 0000.0001) //         No. Y exchanges =              0
(PID.TID 0000.0001) //            Max. Y spins =              0
(PID.TID 0000.0001) //            Min. Y spins =     1000000000
(PID.TID 0000.0001) //          Total. Y spins =              0
(PID.TID 0000.0001) //            Avg. Y spins =       0.00E+00
(PID.TID 0000.0001) // o Tile number: 000180
(PID.TID 0000.0001) //         No. X exchanges =              0
(PID.TID 0000.0001) //            Max. X spins =              0
(PID.TID 0000.0001) //            Min. X spins =     1000000000
(PID.TID 0000.0001) //          Total. X spins =              0
(PID.TID 0000.0001) //            Avg. X spins =       0.00E+00
(PID.TID 0000.0001) //         No. Y exchanges =              0
(PID.TID 0000.0001) //            Max. Y spins =              0
(PID.TID 0000.0001) //            Min. Y spins =     1000000000
(PID.TID 0000.0001) //          Total. Y spins =              0
(PID.TID 0000.0001) //            Avg. Y spins =       0.00E+00
(PID.TID 0000.0001) // o Tile number: 000181
(PID.TID 0000.0001) //         No. X exchanges =              0
(PID.TID 0000.0001) //            Max. X spins =              0
(PID.TID 0000.0001) //            Min. X spins =     1000000000
(PID.TID 0000.0001) //          Total. X spins =              0
(PID.TID 0000.0001) //            Avg. X spins =       0.00E+00
(PID.TID 0000.0001) //         No. Y exchanges =              0
(PID.TID 0000.0001) //            Max. Y spins =              0
(PID.TID 0000.0001) //            Min. Y spins =     1000000000
(PID.TID 0000.0001) //          Total. Y spins =              0
(PID.TID 0000.0001) //            Avg. Y spins =       0.00E+00
(PID.TID 0000.0001) // o Tile number: 000182
(PID.TID 0000.0001) //         No. X exchanges =              0
(PID.TID 0000.0001) //            Max. X spins =              0
(PID.TID 0000.0001) //            Min. X spins =     1000000000
(PID.TID 0000.0001) //          Total. X spins =              0
(PID.TID 0000.0001) //            Avg. X spins =       0.00E+00
(PID.TID 0000.0001) //         No. Y exchanges =              0
(PID.TID 0000.0001) //            Max. Y spins =              0
(PID.TID 0000.0001) //            Min. Y spins =     1000000000
(PID.TID 0000.0001) //          Total. Y spins =              0
(PID.TID 0000.0001) //            Avg. Y spins =       0.00E+00
(PID.TID 0000.0001) // o Tile number: 000183
(PID.TID 0000.0001) //         No. X exchanges =              0
(PID.TID 0000.0001) //            Max. X spins =              0
(PID.TID 0000.0001) //            Min. X spins =     1000000000
(PID.TID 0000.0001) //          Total. X spins =              0
(PID.TID 0000.0001) //            Avg. X spins =       0.00E+00
(PID.TID 0000.0001) //         No. Y exchanges =              0
(PID.TID 0000.0001) //            Max. Y spins =              0
(PID.TID 0000.0001) //            Min. Y spins =     1000000000
(PID.TID 0000.0001) //          Total. Y spins =              0
(PID.TID 0000.0001) //            Avg. Y spins =       0.00E+00
(PID.TID 0000.0001) // o Tile number: 000184
(PID.TID 0000.0001) //         No. X exchanges =              0
(PID.TID 0000.0001) //            Max. X spins =              0
(PID.TID 0000.0001) //            Min. X spins =     1000000000
(PID.TID 0000.0001) //          Total. X spins =              0
(PID.TID 0000.0001) //            Avg. X spins =       0.00E+00
(PID.TID 0000.0001) //         No. Y exchanges =              0
(PID.TID 0000.0001) //            Max. Y spins =              0
(PID.TID 0000.0001) //            Min. Y spins =     1000000000
(PID.TID 0000.0001) //          Total. Y spins =              0
(PID.TID 0000.0001) //            Avg. Y spins =       0.00E+00
(PID.TID 0000.0001) // o Tile number: 000185
(PID.TID 0000.0001) //         No. X exchanges =              0
(PID.TID 0000.0001) //            Max. X spins =              0
(PID.TID 0000.0001) //            Min. X spins =     1000000000
(PID.TID 0000.0001) //          Total. X spins =              0
(PID.TID 0000.0001) //            Avg. X spins =       0.00E+00
(PID.TID 0000.0001) //         No. Y exchanges =              0
(PID.TID 0000.0001) //            Max. Y spins =              0
(PID.TID 0000.0001) //            Min. Y spins =     1000000000
(PID.TID 0000.0001) //          Total. Y spins =              0
(PID.TID 0000.0001) //            Avg. Y spins =       0.00E+00
(PID.TID 0000.0001) // o Tile number: 000186
(PID.TID 0000.0001) //         No. X exchanges =              0
(PID.TID 0000.0001) //            Max. X spins =              0
(PID.TID 0000.0001) //            Min. X spins =     1000000000
(PID.TID 0000.0001) //          Total. X spins =              0
(PID.TID 0000.0001) //            Avg. X spins =       0.00E+00
(PID.TID 0000.0001) //         No. Y exchanges =              0
(PID.TID 0000.0001) //            Max. Y spins =              0
(PID.TID 0000.0001) //            Min. Y spins =     1000000000
(PID.TID 0000.0001) //          Total. Y spins =              0
(PID.TID 0000.0001) //            Avg. Y spins =       0.00E+00
(PID.TID 0000.0001) // o Tile number: 000187
(PID.TID 0000.0001) //         No. X exchanges =              0
(PID.TID 0000.0001) //            Max. X spins =              0
(PID.TID 0000.0001) //            Min. X spins =     1000000000
(PID.TID 0000.0001) //          Total. X spins =              0
(PID.TID 0000.0001) //            Avg. X spins =       0.00E+00
(PID.TID 0000.0001) //         No. Y exchanges =              0
(PID.TID 0000.0001) //            Max. Y spins =              0
(PID.TID 0000.0001) //            Min. Y spins =     1000000000
(PID.TID 0000.0001) //          Total. Y spins =              0
(PID.TID 0000.0001) //            Avg. Y spins =       0.00E+00
(PID.TID 0000.0001) // o Tile number: 000188
(PID.TID 0000.0001) //         No. X exchanges =              0
(PID.TID 0000.0001) //            Max. X spins =              0
(PID.TID 0000.0001) //            Min. X spins =     1000000000
(PID.TID 0000.0001) //          Total. X spins =              0
(PID.TID 0000.0001) //            Avg. X spins =       0.00E+00
(PID.TID 0000.0001) //         No. Y exchanges =              0
(PID.TID 0000.0001) //            Max. Y spins =              0
(PID.TID 0000.0001) //            Min. Y spins =     1000000000
(PID.TID 0000.0001) //          Total. Y spins =              0
(PID.TID 0000.0001) //            Avg. Y spins =       0.00E+00
(PID.TID 0000.0001) // o Tile number: 000189
(PID.TID 0000.0001) //         No. X exchanges =              0
(PID.TID 0000.0001) //            Max. X spins =              0
(PID.TID 0000.0001) //            Min. X spins =     1000000000
(PID.TID 0000.0001) //          Total. X spins =              0
(PID.TID 0000.0001) //            Avg. X spins =       0.00E+00
(PID.TID 0000.0001) //         No. Y exchanges =              0
(PID.TID 0000.0001) //            Max. Y spins =              0
(PID.TID 0000.0001) //            Min. Y spins =     1000000000
(PID.TID 0000.0001) //          Total. Y spins =              0
(PID.TID 0000.0001) //            Avg. Y spins =       0.00E+00
(PID.TID 0000.0001) // o Tile number: 000190
(PID.TID 0000.0001) //         No. X exchanges =              0
(PID.TID 0000.0001) //            Max. X spins =              0
(PID.TID 0000.0001) //            Min. X spins =     1000000000
(PID.TID 0000.0001) //          Total. X spins =              0
(PID.TID 0000.0001) //            Avg. X spins =       0.00E+00
(PID.TID 0000.0001) //         No. Y exchanges =              0
(PID.TID 0000.0001) //            Max. Y spins =              0
(PID.TID 0000.0001) //            Min. Y spins =     1000000000
(PID.TID 0000.0001) //          Total. Y spins =              0
(PID.TID 0000.0001) //            Avg. Y spins =       0.00E+00
(PID.TID 0000.0001) // o Tile number: 000191
(PID.TID 0000.0001) //         No. X exchanges =              0
(PID.TID 0000.0001) //            Max. X spins =              0
(PID.TID 0000.0001) //            Min. X spins =     1000000000
(PID.TID 0000.0001) //          Total. X spins =              0
(PID.TID 0000.0001) //            Avg. X spins =       0.00E+00
(PID.TID 0000.0001) //         No. Y exchanges =              0
(PID.TID 0000.0001) //            Max. Y spins =              0
(PID.TID 0000.0001) //            Min. Y spins =     1000000000
(PID.TID 0000.0001) //          Total. Y spins =              0
(PID.TID 0000.0001) //            Avg. Y spins =       0.00E+00
(PID.TID 0000.0001) // o Tile number: 000192
(PID.TID 0000.0001) //         No. X exchanges =              0
(PID.TID 0000.0001) //            Max. X spins =              0
(PID.TID 0000.0001) //            Min. X spins =     1000000000
(PID.TID 0000.0001) //          Total. X spins =              0
(PID.TID 0000.0001) //            Avg. X spins =       0.00E+00
(PID.TID 0000.0001) //         No. Y exchanges =              0
(PID.TID 0000.0001) //            Max. Y spins =              0
(PID.TID 0000.0001) //            Min. Y spins =     1000000000
(PID.TID 0000.0001) //          Total. Y spins =              0
(PID.TID 0000.0001) //            Avg. Y spins =       0.00E+00
(PID.TID 0000.0001) // o Tile number: 000193
(PID.TID 0000.0001) //         No. X exchanges =              0
(PID.TID 0000.0001) //            Max. X spins =              0
(PID.TID 0000.0001) //            Min. X spins =     1000000000
(PID.TID 0000.0001) //          Total. X spins =              0
(PID.TID 0000.0001) //            Avg. X spins =       0.00E+00
(PID.TID 0000.0001) //         No. Y exchanges =              0
(PID.TID 0000.0001) //            Max. Y spins =              0
(PID.TID 0000.0001) //            Min. Y spins =     1000000000
(PID.TID 0000.0001) //          Total. Y spins =              0
(PID.TID 0000.0001) //            Avg. Y spins =       0.00E+00
(PID.TID 0000.0001) // o Tile number: 000194
(PID.TID 0000.0001) //         No. X exchanges =              0
(PID.TID 0000.0001) //            Max. X spins =              0
(PID.TID 0000.0001) //            Min. X spins =     1000000000
(PID.TID 0000.0001) //          Total. X spins =              0
(PID.TID 0000.0001) //            Avg. X spins =       0.00E+00
(PID.TID 0000.0001) //         No. Y exchanges =              0
(PID.TID 0000.0001) //            Max. Y spins =              0
(PID.TID 0000.0001) //            Min. Y spins =     1000000000
(PID.TID 0000.0001) //          Total. Y spins =              0
(PID.TID 0000.0001) //            Avg. Y spins =       0.00E+00
(PID.TID 0000.0001) // o Tile number: 000195
(PID.TID 0000.0001) //         No. X exchanges =              0
(PID.TID 0000.0001) //            Max. X spins =              0
(PID.TID 0000.0001) //            Min. X spins =     1000000000
(PID.TID 0000.0001) //          Total. X spins =              0
(PID.TID 0000.0001) //            Avg. X spins =       0.00E+00
(PID.TID 0000.0001) //         No. Y exchanges =              0
(PID.TID 0000.0001) //            Max. Y spins =              0
(PID.TID 0000.0001) //            Min. Y spins =     1000000000
(PID.TID 0000.0001) //          Total. Y spins =              0
(PID.TID 0000.0001) //            Avg. Y spins =       0.00E+00
(PID.TID 0000.0001) // o Tile number: 000196
(PID.TID 0000.0001) //         No. X exchanges =              0
(PID.TID 0000.0001) //            Max. X spins =              0
(PID.TID 0000.0001) //            Min. X spins =     1000000000
(PID.TID 0000.0001) //          Total. X spins =              0
(PID.TID 0000.0001) //            Avg. X spins =       0.00E+00
(PID.TID 0000.0001) //         No. Y exchanges =              0
(PID.TID 0000.0001) //            Max. Y spins =              0
(PID.TID 0000.0001) //            Min. Y spins =     1000000000
(PID.TID 0000.0001) //          Total. Y spins =              0
(PID.TID 0000.0001) //            Avg. Y spins =       0.00E+00
(PID.TID 0000.0001) // o Tile number: 000197
(PID.TID 0000.0001) //         No. X exchanges =              0
(PID.TID 0000.0001) //            Max. X spins =              0
(PID.TID 0000.0001) //            Min. X spins =     1000000000
(PID.TID 0000.0001) //          Total. X spins =              0
(PID.TID 0000.0001) //            Avg. X spins =       0.00E+00
(PID.TID 0000.0001) //         No. Y exchanges =              0
(PID.TID 0000.0001) //            Max. Y spins =              0
(PID.TID 0000.0001) //            Min. Y spins =     1000000000
(PID.TID 0000.0001) //          Total. Y spins =              0
(PID.TID 0000.0001) //            Avg. Y spins =       0.00E+00
(PID.TID 0000.0001) // o Tile number: 000198
(PID.TID 0000.0001) //         No. X exchanges =              0
(PID.TID 0000.0001) //            Max. X spins =              0
(PID.TID 0000.0001) //            Min. X spins =     1000000000
(PID.TID 0000.0001) //          Total. X spins =              0
(PID.TID 0000.0001) //            Avg. X spins =       0.00E+00
(PID.TID 0000.0001) //         No. Y exchanges =              0
(PID.TID 0000.0001) //            Max. Y spins =              0
(PID.TID 0000.0001) //            Min. Y spins =     1000000000
(PID.TID 0000.0001) //          Total. Y spins =              0
(PID.TID 0000.0001) //            Avg. Y spins =       0.00E+00
(PID.TID 0000.0001) // o Tile number: 000199
(PID.TID 0000.0001) //         No. X exchanges =              0
(PID.TID 0000.0001) //            Max. X spins =              0
(PID.TID 0000.0001) //            Min. X spins =     1000000000
(PID.TID 0000.0001) //          Total. X spins =              0
(PID.TID 0000.0001) //            Avg. X spins =       0.00E+00
(PID.TID 0000.0001) //         No. Y exchanges =              0
(PID.TID 0000.0001) //            Max. Y spins =              0
(PID.TID 0000.0001) //            Min. Y spins =     1000000000
(PID.TID 0000.0001) //          Total. Y spins =              0
(PID.TID 0000.0001) //            Avg. Y spins =       0.00E+00
(PID.TID 0000.0001) // o Tile number: 000200
(PID.TID 0000.0001) //         No. X exchanges =              0
(PID.TID 0000.0001) //            Max. X spins =              0
(PID.TID 0000.0001) //            Min. X spins =     1000000000
(PID.TID 0000.0001) //          Total. X spins =              0
(PID.TID 0000.0001) //            Avg. X spins =       0.00E+00
(PID.TID 0000.0001) //         No. Y exchanges =              0
(PID.TID 0000.0001) //            Max. Y spins =              0
(PID.TID 0000.0001) //            Min. Y spins =     1000000000
(PID.TID 0000.0001) //          Total. Y spins =              0
(PID.TID 0000.0001) //            Avg. Y spins =       0.00E+00
(PID.TID 0000.0001) // o Tile number: 000201
(PID.TID 0000.0001) //         No. X exchanges =              0
(PID.TID 0000.0001) //            Max. X spins =              0
(PID.TID 0000.0001) //            Min. X spins =     1000000000
(PID.TID 0000.0001) //          Total. X spins =              0
(PID.TID 0000.0001) //            Avg. X spins =       0.00E+00
(PID.TID 0000.0001) //         No. Y exchanges =              0
(PID.TID 0000.0001) //            Max. Y spins =              0
(PID.TID 0000.0001) //            Min. Y spins =     1000000000
(PID.TID 0000.0001) //          Total. Y spins =              0
(PID.TID 0000.0001) //            Avg. Y spins =       0.00E+00
(PID.TID 0000.0001) // o Tile number: 000202
(PID.TID 0000.0001) //         No. X exchanges =              0
(PID.TID 0000.0001) //            Max. X spins =              0
(PID.TID 0000.0001) //            Min. X spins =     1000000000
(PID.TID 0000.0001) //          Total. X spins =              0
(PID.TID 0000.0001) //            Avg. X spins =       0.00E+00
(PID.TID 0000.0001) //         No. Y exchanges =              0
(PID.TID 0000.0001) //            Max. Y spins =              0
(PID.TID 0000.0001) //            Min. Y spins =     1000000000
(PID.TID 0000.0001) //          Total. Y spins =              0
(PID.TID 0000.0001) //            Avg. Y spins =       0.00E+00
(PID.TID 0000.0001) // o Tile number: 000203
(PID.TID 0000.0001) //         No. X exchanges =              0
(PID.TID 0000.0001) //            Max. X spins =              0
(PID.TID 0000.0001) //            Min. X spins =     1000000000
(PID.TID 0000.0001) //          Total. X spins =              0
(PID.TID 0000.0001) //            Avg. X spins =       0.00E+00
(PID.TID 0000.0001) //         No. Y exchanges =              0
(PID.TID 0000.0001) //            Max. Y spins =              0
(PID.TID 0000.0001) //            Min. Y spins =     1000000000
(PID.TID 0000.0001) //          Total. Y spins =              0
(PID.TID 0000.0001) //            Avg. Y spins =       0.00E+00
(PID.TID 0000.0001) // o Tile number: 000204
(PID.TID 0000.0001) //         No. X exchanges =              0
(PID.TID 0000.0001) //            Max. X spins =              0
(PID.TID 0000.0001) //            Min. X spins =     1000000000
(PID.TID 0000.0001) //          Total. X spins =              0
(PID.TID 0000.0001) //            Avg. X spins =       0.00E+00
(PID.TID 0000.0001) //         No. Y exchanges =              0
(PID.TID 0000.0001) //            Max. Y spins =              0
(PID.TID 0000.0001) //            Min. Y spins =     1000000000
(PID.TID 0000.0001) //          Total. Y spins =              0
(PID.TID 0000.0001) //            Avg. Y spins =       0.00E+00
(PID.TID 0000.0001) // o Tile number: 000205
(PID.TID 0000.0001) //         No. X exchanges =              0
(PID.TID 0000.0001) //            Max. X spins =              0
(PID.TID 0000.0001) //            Min. X spins =     1000000000
(PID.TID 0000.0001) //          Total. X spins =              0
(PID.TID 0000.0001) //            Avg. X spins =       0.00E+00
(PID.TID 0000.0001) //         No. Y exchanges =              0
(PID.TID 0000.0001) //            Max. Y spins =              0
(PID.TID 0000.0001) //            Min. Y spins =     1000000000
(PID.TID 0000.0001) //          Total. Y spins =              0
(PID.TID 0000.0001) //            Avg. Y spins =       0.00E+00
(PID.TID 0000.0001) // o Tile number: 000206
(PID.TID 0000.0001) //         No. X exchanges =              0
(PID.TID 0000.0001) //            Max. X spins =              0
(PID.TID 0000.0001) //            Min. X spins =     1000000000
(PID.TID 0000.0001) //          Total. X spins =              0
(PID.TID 0000.0001) //            Avg. X spins =       0.00E+00
(PID.TID 0000.0001) //         No. Y exchanges =              0
(PID.TID 0000.0001) //            Max. Y spins =              0
(PID.TID 0000.0001) //            Min. Y spins =     1000000000
(PID.TID 0000.0001) //          Total. Y spins =              0
(PID.TID 0000.0001) //            Avg. Y spins =       0.00E+00
(PID.TID 0000.0001) // o Tile number: 000207
(PID.TID 0000.0001) //         No. X exchanges =              0
(PID.TID 0000.0001) //            Max. X spins =              0
(PID.TID 0000.0001) //            Min. X spins =     1000000000
(PID.TID 0000.0001) //          Total. X spins =              0
(PID.TID 0000.0001) //            Avg. X spins =       0.00E+00
(PID.TID 0000.0001) //         No. Y exchanges =              0
(PID.TID 0000.0001) //            Max. Y spins =              0
(PID.TID 0000.0001) //            Min. Y spins =     1000000000
(PID.TID 0000.0001) //          Total. Y spins =              0
(PID.TID 0000.0001) //            Avg. Y spins =       0.00E+00
(PID.TID 0000.0001) // o Tile number: 000208
(PID.TID 0000.0001) //         No. X exchanges =              0
(PID.TID 0000.0001) //            Max. X spins =              0
(PID.TID 0000.0001) //            Min. X spins =     1000000000
(PID.TID 0000.0001) //          Total. X spins =              0
(PID.TID 0000.0001) //            Avg. X spins =       0.00E+00
(PID.TID 0000.0001) //         No. Y exchanges =              0
(PID.TID 0000.0001) //            Max. Y spins =              0
(PID.TID 0000.0001) //            Min. Y spins =     1000000000
(PID.TID 0000.0001) //          Total. Y spins =              0
(PID.TID 0000.0001) //            Avg. Y spins =       0.00E+00
(PID.TID 0000.0001) // o Tile number: 000209
(PID.TID 0000.0001) //         No. X exchanges =              0
(PID.TID 0000.0001) //            Max. X spins =              0
(PID.TID 0000.0001) //            Min. X spins =     1000000000
(PID.TID 0000.0001) //          Total. X spins =              0
(PID.TID 0000.0001) //            Avg. X spins =       0.00E+00
(PID.TID 0000.0001) //         No. Y exchanges =              0
(PID.TID 0000.0001) //            Max. Y spins =              0
(PID.TID 0000.0001) //            Min. Y spins =     1000000000
(PID.TID 0000.0001) //          Total. Y spins =              0
(PID.TID 0000.0001) //            Avg. Y spins =       0.00E+00
(PID.TID 0000.0001) // o Tile number: 000210
(PID.TID 0000.0001) //         No. X exchanges =              0
(PID.TID 0000.0001) //            Max. X spins =              0
(PID.TID 0000.0001) //            Min. X spins =     1000000000
(PID.TID 0000.0001) //          Total. X spins =              0
(PID.TID 0000.0001) //            Avg. X spins =       0.00E+00
(PID.TID 0000.0001) //         No. Y exchanges =              0
(PID.TID 0000.0001) //            Max. Y spins =              0
(PID.TID 0000.0001) //            Min. Y spins =     1000000000
(PID.TID 0000.0001) //          Total. Y spins =              0
(PID.TID 0000.0001) //            Avg. Y spins =       0.00E+00
(PID.TID 0000.0001) // o Tile number: 000211
(PID.TID 0000.0001) //         No. X exchanges =              0
(PID.TID 0000.0001) //            Max. X spins =              0
(PID.TID 0000.0001) //            Min. X spins =     1000000000
(PID.TID 0000.0001) //          Total. X spins =              0
(PID.TID 0000.0001) //            Avg. X spins =       0.00E+00
(PID.TID 0000.0001) //         No. Y exchanges =              0
(PID.TID 0000.0001) //            Max. Y spins =              0
(PID.TID 0000.0001) //            Min. Y spins =     1000000000
(PID.TID 0000.0001) //          Total. Y spins =              0
(PID.TID 0000.0001) //            Avg. Y spins =       0.00E+00
(PID.TID 0000.0001) // o Tile number: 000212
(PID.TID 0000.0001) //         No. X exchanges =              0
(PID.TID 0000.0001) //            Max. X spins =              0
(PID.TID 0000.0001) //            Min. X spins =     1000000000
(PID.TID 0000.0001) //          Total. X spins =              0
(PID.TID 0000.0001) //            Avg. X spins =       0.00E+00
(PID.TID 0000.0001) //         No. Y exchanges =              0
(PID.TID 0000.0001) //            Max. Y spins =              0
(PID.TID 0000.0001) //            Min. Y spins =     1000000000
(PID.TID 0000.0001) //          Total. Y spins =              0
(PID.TID 0000.0001) //            Avg. Y spins =       0.00E+00
(PID.TID 0000.0001) // o Tile number: 000213
(PID.TID 0000.0001) //         No. X exchanges =              0
(PID.TID 0000.0001) //            Max. X spins =              0
(PID.TID 0000.0001) //            Min. X spins =     1000000000
(PID.TID 0000.0001) //          Total. X spins =              0
(PID.TID 0000.0001) //            Avg. X spins =       0.00E+00
(PID.TID 0000.0001) //         No. Y exchanges =              0
(PID.TID 0000.0001) //            Max. Y spins =              0
(PID.TID 0000.0001) //            Min. Y spins =     1000000000
(PID.TID 0000.0001) //          Total. Y spins =              0
(PID.TID 0000.0001) //            Avg. Y spins =       0.00E+00
(PID.TID 0000.0001) // o Tile number: 000214
(PID.TID 0000.0001) //         No. X exchanges =              0
(PID.TID 0000.0001) //            Max. X spins =              0
(PID.TID 0000.0001) //            Min. X spins =     1000000000
(PID.TID 0000.0001) //          Total. X spins =              0
(PID.TID 0000.0001) //            Avg. X spins =       0.00E+00
(PID.TID 0000.0001) //         No. Y exchanges =              0
(PID.TID 0000.0001) //            Max. Y spins =              0
(PID.TID 0000.0001) //            Min. Y spins =     1000000000
(PID.TID 0000.0001) //          Total. Y spins =              0
(PID.TID 0000.0001) //            Avg. Y spins =       0.00E+00
(PID.TID 0000.0001) // o Tile number: 000215
(PID.TID 0000.0001) //         No. X exchanges =              0
(PID.TID 0000.0001) //            Max. X spins =              0
(PID.TID 0000.0001) //            Min. X spins =     1000000000
(PID.TID 0000.0001) //          Total. X spins =              0
(PID.TID 0000.0001) //            Avg. X spins =       0.00E+00
(PID.TID 0000.0001) //         No. Y exchanges =              0
(PID.TID 0000.0001) //            Max. Y spins =              0
(PID.TID 0000.0001) //            Min. Y spins =     1000000000
(PID.TID 0000.0001) //          Total. Y spins =              0
(PID.TID 0000.0001) //            Avg. Y spins =       0.00E+00
(PID.TID 0000.0001) // o Tile number: 000216
(PID.TID 0000.0001) //         No. X exchanges =              0
(PID.TID 0000.0001) //            Max. X spins =              0
(PID.TID 0000.0001) //            Min. X spins =     1000000000
(PID.TID 0000.0001) //          Total. X spins =              0
(PID.TID 0000.0001) //            Avg. X spins =       0.00E+00
(PID.TID 0000.0001) //         No. Y exchanges =              0
(PID.TID 0000.0001) //            Max. Y spins =              0
(PID.TID 0000.0001) //            Min. Y spins =     1000000000
(PID.TID 0000.0001) //          Total. Y spins =              0
(PID.TID 0000.0001) //            Avg. Y spins =       0.00E+00
(PID.TID 0000.0001) // o Tile number: 000217
(PID.TID 0000.0001) //         No. X exchanges =              0
(PID.TID 0000.0001) //            Max. X spins =              0
(PID.TID 0000.0001) //            Min. X spins =     1000000000
(PID.TID 0000.0001) //          Total. X spins =              0
(PID.TID 0000.0001) //            Avg. X spins =       0.00E+00
(PID.TID 0000.0001) //         No. Y exchanges =              0
(PID.TID 0000.0001) //            Max. Y spins =              0
(PID.TID 0000.0001) //            Min. Y spins =     1000000000
(PID.TID 0000.0001) //          Total. Y spins =              0
(PID.TID 0000.0001) //            Avg. Y spins =       0.00E+00
(PID.TID 0000.0001) // o Tile number: 000218
(PID.TID 0000.0001) //         No. X exchanges =              0
(PID.TID 0000.0001) //            Max. X spins =              0
(PID.TID 0000.0001) //            Min. X spins =     1000000000
(PID.TID 0000.0001) //          Total. X spins =              0
(PID.TID 0000.0001) //            Avg. X spins =       0.00E+00
(PID.TID 0000.0001) //         No. Y exchanges =              0
(PID.TID 0000.0001) //            Max. Y spins =              0
(PID.TID 0000.0001) //            Min. Y spins =     1000000000
(PID.TID 0000.0001) //          Total. Y spins =              0
(PID.TID 0000.0001) //            Avg. Y spins =       0.00E+00
(PID.TID 0000.0001) // o Tile number: 000219
(PID.TID 0000.0001) //         No. X exchanges =              0
(PID.TID 0000.0001) //            Max. X spins =              0
(PID.TID 0000.0001) //            Min. X spins =     1000000000
(PID.TID 0000.0001) //          Total. X spins =              0
(PID.TID 0000.0001) //            Avg. X spins =       0.00E+00
(PID.TID 0000.0001) //         No. Y exchanges =              0
(PID.TID 0000.0001) //            Max. Y spins =              0
(PID.TID 0000.0001) //            Min. Y spins =     1000000000
(PID.TID 0000.0001) //          Total. Y spins =              0
(PID.TID 0000.0001) //            Avg. Y spins =       0.00E+00
(PID.TID 0000.0001) // o Tile number: 000220
(PID.TID 0000.0001) //         No. X exchanges =              0
(PID.TID 0000.0001) //            Max. X spins =              0
(PID.TID 0000.0001) //            Min. X spins =     1000000000
(PID.TID 0000.0001) //          Total. X spins =              0
(PID.TID 0000.0001) //            Avg. X spins =       0.00E+00
(PID.TID 0000.0001) //         No. Y exchanges =              0
(PID.TID 0000.0001) //            Max. Y spins =              0
(PID.TID 0000.0001) //            Min. Y spins =     1000000000
(PID.TID 0000.0001) //          Total. Y spins =              0
(PID.TID 0000.0001) //            Avg. Y spins =       0.00E+00
(PID.TID 0000.0001) // o Tile number: 000221
(PID.TID 0000.0001) //         No. X exchanges =              0
(PID.TID 0000.0001) //            Max. X spins =              0
(PID.TID 0000.0001) //            Min. X spins =     1000000000
(PID.TID 0000.0001) //          Total. X spins =              0
(PID.TID 0000.0001) //            Avg. X spins =       0.00E+00
(PID.TID 0000.0001) //         No. Y exchanges =              0
(PID.TID 0000.0001) //            Max. Y spins =              0
(PID.TID 0000.0001) //            Min. Y spins =     1000000000
(PID.TID 0000.0001) //          Total. Y spins =              0
(PID.TID 0000.0001) //            Avg. Y spins =       0.00E+00
(PID.TID 0000.0001) // o Tile number: 000222
(PID.TID 0000.0001) //         No. X exchanges =              0
(PID.TID 0000.0001) //            Max. X spins =              0
(PID.TID 0000.0001) //            Min. X spins =     1000000000
(PID.TID 0000.0001) //          Total. X spins =              0
(PID.TID 0000.0001) //            Avg. X spins =       0.00E+00
(PID.TID 0000.0001) //         No. Y exchanges =              0
(PID.TID 0000.0001) //            Max. Y spins =              0
(PID.TID 0000.0001) //            Min. Y spins =     1000000000
(PID.TID 0000.0001) //          Total. Y spins =              0
(PID.TID 0000.0001) //            Avg. Y spins =       0.00E+00
(PID.TID 0000.0001) // o Tile number: 000223
(PID.TID 0000.0001) //         No. X exchanges =              0
(PID.TID 0000.0001) //            Max. X spins =              0
(PID.TID 0000.0001) //            Min. X spins =     1000000000
(PID.TID 0000.0001) //          Total. X spins =              0
(PID.TID 0000.0001) //            Avg. X spins =       0.00E+00
(PID.TID 0000.0001) //         No. Y exchanges =              0
(PID.TID 0000.0001) //            Max. Y spins =              0
(PID.TID 0000.0001) //            Min. Y spins =     1000000000
(PID.TID 0000.0001) //          Total. Y spins =              0
(PID.TID 0000.0001) //            Avg. Y spins =       0.00E+00
(PID.TID 0000.0001) // o Tile number: 000224
(PID.TID 0000.0001) //         No. X exchanges =              0
(PID.TID 0000.0001) //            Max. X spins =              0
(PID.TID 0000.0001) //            Min. X spins =     1000000000
(PID.TID 0000.0001) //          Total. X spins =              0
(PID.TID 0000.0001) //            Avg. X spins =       0.00E+00
(PID.TID 0000.0001) //         No. Y exchanges =              0
(PID.TID 0000.0001) //            Max. Y spins =              0
(PID.TID 0000.0001) //            Min. Y spins =     1000000000
(PID.TID 0000.0001) //          Total. Y spins =              0
(PID.TID 0000.0001) //            Avg. Y spins =       0.00E+00
(PID.TID 0000.0001) // o Tile number: 000225
(PID.TID 0000.0001) //         No. X exchanges =              0
(PID.TID 0000.0001) //            Max. X spins =              0
(PID.TID 0000.0001) //            Min. X spins =     1000000000
(PID.TID 0000.0001) //          Total. X spins =              0
(PID.TID 0000.0001) //            Avg. X spins =       0.00E+00
(PID.TID 0000.0001) //         No. Y exchanges =              0
(PID.TID 0000.0001) //            Max. Y spins =              0
(PID.TID 0000.0001) //            Min. Y spins =     1000000000
(PID.TID 0000.0001) //          Total. Y spins =              0
(PID.TID 0000.0001) //            Avg. Y spins =       0.00E+00
(PID.TID 0000.0001) // o Tile number: 000226
(PID.TID 0000.0001) //         No. X exchanges =              0
(PID.TID 0000.0001) //            Max. X spins =              0
(PID.TID 0000.0001) //            Min. X spins =     1000000000
(PID.TID 0000.0001) //          Total. X spins =              0
(PID.TID 0000.0001) //            Avg. X spins =       0.00E+00
(PID.TID 0000.0001) //         No. Y exchanges =              0
(PID.TID 0000.0001) //            Max. Y spins =              0
(PID.TID 0000.0001) //            Min. Y spins =     1000000000
(PID.TID 0000.0001) //          Total. Y spins =              0
(PID.TID 0000.0001) //            Avg. Y spins =       0.00E+00
(PID.TID 0000.0001) // o Tile number: 000227
(PID.TID 0000.0001) //         No. X exchanges =              0
(PID.TID 0000.0001) //            Max. X spins =              0
(PID.TID 0000.0001) //            Min. X spins =     1000000000
(PID.TID 0000.0001) //          Total. X spins =              0
(PID.TID 0000.0001) //            Avg. X spins =       0.00E+00
(PID.TID 0000.0001) //         No. Y exchanges =              0
(PID.TID 0000.0001) //            Max. Y spins =              0
(PID.TID 0000.0001) //            Min. Y spins =     1000000000
(PID.TID 0000.0001) //          Total. Y spins =              0
(PID.TID 0000.0001) //            Avg. Y spins =       0.00E+00
(PID.TID 0000.0001) // o Tile number: 000228
(PID.TID 0000.0001) //         No. X exchanges =              0
(PID.TID 0000.0001) //            Max. X spins =              0
(PID.TID 0000.0001) //            Min. X spins =     1000000000
(PID.TID 0000.0001) //          Total. X spins =              0
(PID.TID 0000.0001) //            Avg. X spins =       0.00E+00
(PID.TID 0000.0001) //         No. Y exchanges =              0
(PID.TID 0000.0001) //            Max. Y spins =              0
(PID.TID 0000.0001) //            Min. Y spins =     1000000000
(PID.TID 0000.0001) //          Total. Y spins =              0
(PID.TID 0000.0001) //            Avg. Y spins =       0.00E+00
(PID.TID 0000.0001) // o Tile number: 000229
(PID.TID 0000.0001) //         No. X exchanges =              0
(PID.TID 0000.0001) //            Max. X spins =              0
(PID.TID 0000.0001) //            Min. X spins =     1000000000
(PID.TID 0000.0001) //          Total. X spins =              0
(PID.TID 0000.0001) //            Avg. X spins =       0.00E+00
(PID.TID 0000.0001) //         No. Y exchanges =              0
(PID.TID 0000.0001) //            Max. Y spins =              0
(PID.TID 0000.0001) //            Min. Y spins =     1000000000
(PID.TID 0000.0001) //          Total. Y spins =              0
(PID.TID 0000.0001) //            Avg. Y spins =       0.00E+00
(PID.TID 0000.0001) // o Tile number: 000230
(PID.TID 0000.0001) //         No. X exchanges =              0
(PID.TID 0000.0001) //            Max. X spins =              0
(PID.TID 0000.0001) //            Min. X spins =     1000000000
(PID.TID 0000.0001) //          Total. X spins =              0
(PID.TID 0000.0001) //            Avg. X spins =       0.00E+00
(PID.TID 0000.0001) //         No. Y exchanges =              0
(PID.TID 0000.0001) //            Max. Y spins =              0
(PID.TID 0000.0001) //            Min. Y spins =     1000000000
(PID.TID 0000.0001) //          Total. Y spins =              0
(PID.TID 0000.0001) //            Avg. Y spins =       0.00E+00
(PID.TID 0000.0001) // o Tile number: 000231
(PID.TID 0000.0001) //         No. X exchanges =              0
(PID.TID 0000.0001) //            Max. X spins =              0
(PID.TID 0000.0001) //            Min. X spins =     1000000000
(PID.TID 0000.0001) //          Total. X spins =              0
(PID.TID 0000.0001) //            Avg. X spins =       0.00E+00
(PID.TID 0000.0001) //         No. Y exchanges =              0
(PID.TID 0000.0001) //            Max. Y spins =              0
(PID.TID 0000.0001) //            Min. Y spins =     1000000000
(PID.TID 0000.0001) //          Total. Y spins =              0
(PID.TID 0000.0001) //            Avg. Y spins =       0.00E+00
(PID.TID 0000.0001) // o Tile number: 000232
(PID.TID 0000.0001) //         No. X exchanges =              0
(PID.TID 0000.0001) //            Max. X spins =              0
(PID.TID 0000.0001) //            Min. X spins =     1000000000
(PID.TID 0000.0001) //          Total. X spins =              0
(PID.TID 0000.0001) //            Avg. X spins =       0.00E+00
(PID.TID 0000.0001) //         No. Y exchanges =              0
(PID.TID 0000.0001) //            Max. Y spins =              0
(PID.TID 0000.0001) //            Min. Y spins =     1000000000
(PID.TID 0000.0001) //          Total. Y spins =              0
(PID.TID 0000.0001) //            Avg. Y spins =       0.00E+00
(PID.TID 0000.0001) // o Tile number: 000233
(PID.TID 0000.0001) //         No. X exchanges =              0
(PID.TID 0000.0001) //            Max. X spins =              0
(PID.TID 0000.0001) //            Min. X spins =     1000000000
(PID.TID 0000.0001) //          Total. X spins =              0
(PID.TID 0000.0001) //            Avg. X spins =       0.00E+00
(PID.TID 0000.0001) //         No. Y exchanges =              0
(PID.TID 0000.0001) //            Max. Y spins =              0
(PID.TID 0000.0001) //            Min. Y spins =     1000000000
(PID.TID 0000.0001) //          Total. Y spins =              0
(PID.TID 0000.0001) //            Avg. Y spins =       0.00E+00
(PID.TID 0000.0001) // o Tile number: 000234
(PID.TID 0000.0001) //         No. X exchanges =              0
(PID.TID 0000.0001) //            Max. X spins =              0
(PID.TID 0000.0001) //            Min. X spins =     1000000000
(PID.TID 0000.0001) //          Total. X spins =              0
(PID.TID 0000.0001) //            Avg. X spins =       0.00E+00
(PID.TID 0000.0001) //         No. Y exchanges =              0
(PID.TID 0000.0001) //            Max. Y spins =              0
(PID.TID 0000.0001) //            Min. Y spins =     1000000000
(PID.TID 0000.0001) //          Total. Y spins =              0
(PID.TID 0000.0001) //            Avg. Y spins =       0.00E+00
(PID.TID 0000.0001) // o Tile number: 000235
(PID.TID 0000.0001) //         No. X exchanges =              0
(PID.TID 0000.0001) //            Max. X spins =              0
(PID.TID 0000.0001) //            Min. X spins =     1000000000
(PID.TID 0000.0001) //          Total. X spins =              0
(PID.TID 0000.0001) //            Avg. X spins =       0.00E+00
(PID.TID 0000.0001) //         No. Y exchanges =              0
(PID.TID 0000.0001) //            Max. Y spins =              0
(PID.TID 0000.0001) //            Min. Y spins =     1000000000
(PID.TID 0000.0001) //          Total. Y spins =              0
(PID.TID 0000.0001) //            Avg. Y spins =       0.00E+00
(PID.TID 0000.0001) // o Tile number: 000236
(PID.TID 0000.0001) //         No. X exchanges =              0
(PID.TID 0000.0001) //            Max. X spins =              0
(PID.TID 0000.0001) //            Min. X spins =     1000000000
(PID.TID 0000.0001) //          Total. X spins =              0
(PID.TID 0000.0001) //            Avg. X spins =       0.00E+00
(PID.TID 0000.0001) //         No. Y exchanges =              0
(PID.TID 0000.0001) //            Max. Y spins =              0
(PID.TID 0000.0001) //            Min. Y spins =     1000000000
(PID.TID 0000.0001) //          Total. Y spins =              0
(PID.TID 0000.0001) //            Avg. Y spins =       0.00E+00
(PID.TID 0000.0001) // o Tile number: 000237
(PID.TID 0000.0001) //         No. X exchanges =              0
(PID.TID 0000.0001) //            Max. X spins =              0
(PID.TID 0000.0001) //            Min. X spins =     1000000000
(PID.TID 0000.0001) //          Total. X spins =              0
(PID.TID 0000.0001) //            Avg. X spins =       0.00E+00
(PID.TID 0000.0001) //         No. Y exchanges =              0
(PID.TID 0000.0001) //            Max. Y spins =              0
(PID.TID 0000.0001) //            Min. Y spins =     1000000000
(PID.TID 0000.0001) //          Total. Y spins =              0
(PID.TID 0000.0001) //            Avg. Y spins =       0.00E+00
(PID.TID 0000.0001) // o Tile number: 000238
(PID.TID 0000.0001) //         No. X exchanges =              0
(PID.TID 0000.0001) //            Max. X spins =              0
(PID.TID 0000.0001) //            Min. X spins =     1000000000
(PID.TID 0000.0001) //          Total. X spins =              0
(PID.TID 0000.0001) //            Avg. X spins =       0.00E+00
(PID.TID 0000.0001) //         No. Y exchanges =              0
(PID.TID 0000.0001) //            Max. Y spins =              0
(PID.TID 0000.0001) //            Min. Y spins =     1000000000
(PID.TID 0000.0001) //          Total. Y spins =              0
(PID.TID 0000.0001) //            Avg. Y spins =       0.00E+00
(PID.TID 0000.0001) // o Tile number: 000239
(PID.TID 0000.0001) //         No. X exchanges =              0
(PID.TID 0000.0001) //            Max. X spins =              0
(PID.TID 0000.0001) //            Min. X spins =     1000000000
(PID.TID 0000.0001) //          Total. X spins =              0
(PID.TID 0000.0001) //            Avg. X spins =       0.00E+00
(PID.TID 0000.0001) //         No. Y exchanges =              0
(PID.TID 0000.0001) //            Max. Y spins =              0
(PID.TID 0000.0001) //            Min. Y spins =     1000000000
(PID.TID 0000.0001) //          Total. Y spins =              0
(PID.TID 0000.0001) //            Avg. Y spins =       0.00E+00
(PID.TID 0000.0001) // o Tile number: 000240
(PID.TID 0000.0001) //         No. X exchanges =              0
(PID.TID 0000.0001) //            Max. X spins =              0
(PID.TID 0000.0001) //            Min. X spins =     1000000000
(PID.TID 0000.0001) //          Total. X spins =              0
(PID.TID 0000.0001) //            Avg. X spins =       0.00E+00
(PID.TID 0000.0001) //         No. Y exchanges =              0
(PID.TID 0000.0001) //            Max. Y spins =              0
(PID.TID 0000.0001) //            Min. Y spins =     1000000000
(PID.TID 0000.0001) //          Total. Y spins =              0
(PID.TID 0000.0001) //            Avg. Y spins =       0.00E+00
(PID.TID 0000.0001) // o Tile number: 000241
(PID.TID 0000.0001) //         No. X exchanges =              0
(PID.TID 0000.0001) //            Max. X spins =              0
(PID.TID 0000.0001) //            Min. X spins =     1000000000
(PID.TID 0000.0001) //          Total. X spins =              0
(PID.TID 0000.0001) //            Avg. X spins =       0.00E+00
(PID.TID 0000.0001) //         No. Y exchanges =              0
(PID.TID 0000.0001) //            Max. Y spins =              0
(PID.TID 0000.0001) //            Min. Y spins =     1000000000
(PID.TID 0000.0001) //          Total. Y spins =              0
(PID.TID 0000.0001) //            Avg. Y spins =       0.00E+00
(PID.TID 0000.0001) // o Tile number: 000242
(PID.TID 0000.0001) //         No. X exchanges =              0
(PID.TID 0000.0001) //            Max. X spins =              0
(PID.TID 0000.0001) //            Min. X spins =     1000000000
(PID.TID 0000.0001) //          Total. X spins =              0
(PID.TID 0000.0001) //            Avg. X spins =       0.00E+00
(PID.TID 0000.0001) //         No. Y exchanges =              0
(PID.TID 0000.0001) //            Max. Y spins =              0
(PID.TID 0000.0001) //            Min. Y spins =     1000000000
(PID.TID 0000.0001) //          Total. Y spins =              0
(PID.TID 0000.0001) //            Avg. Y spins =       0.00E+00
(PID.TID 0000.0001) // o Tile number: 000243
(PID.TID 0000.0001) //         No. X exchanges =              0
(PID.TID 0000.0001) //            Max. X spins =              0
(PID.TID 0000.0001) //            Min. X spins =     1000000000
(PID.TID 0000.0001) //          Total. X spins =              0
(PID.TID 0000.0001) //            Avg. X spins =       0.00E+00
(PID.TID 0000.0001) //         No. Y exchanges =              0
(PID.TID 0000.0001) //            Max. Y spins =              0
(PID.TID 0000.0001) //            Min. Y spins =     1000000000
(PID.TID 0000.0001) //          Total. Y spins =              0
(PID.TID 0000.0001) //            Avg. Y spins =       0.00E+00
(PID.TID 0000.0001) // o Tile number: 000244
(PID.TID 0000.0001) //         No. X exchanges =              0
(PID.TID 0000.0001) //            Max. X spins =              0
(PID.TID 0000.0001) //            Min. X spins =     1000000000
(PID.TID 0000.0001) //          Total. X spins =              0
(PID.TID 0000.0001) //            Avg. X spins =       0.00E+00
(PID.TID 0000.0001) //         No. Y exchanges =              0
(PID.TID 0000.0001) //            Max. Y spins =              0
(PID.TID 0000.0001) //            Min. Y spins =     1000000000
(PID.TID 0000.0001) //          Total. Y spins =              0
(PID.TID 0000.0001) //            Avg. Y spins =       0.00E+00
(PID.TID 0000.0001) // o Tile number: 000245
(PID.TID 0000.0001) //         No. X exchanges =              0
(PID.TID 0000.0001) //            Max. X spins =              0
(PID.TID 0000.0001) //            Min. X spins =     1000000000
(PID.TID 0000.0001) //          Total. X spins =              0
(PID.TID 0000.0001) //            Avg. X spins =       0.00E+00
(PID.TID 0000.0001) //         No. Y exchanges =              0
(PID.TID 0000.0001) //            Max. Y spins =              0
(PID.TID 0000.0001) //            Min. Y spins =     1000000000
(PID.TID 0000.0001) //          Total. Y spins =              0
(PID.TID 0000.0001) //            Avg. Y spins =       0.00E+00
(PID.TID 0000.0001) // o Tile number: 000246
(PID.TID 0000.0001) //         No. X exchanges =              0
(PID.TID 0000.0001) //            Max. X spins =              0
(PID.TID 0000.0001) //            Min. X spins =     1000000000
(PID.TID 0000.0001) //          Total. X spins =              0
(PID.TID 0000.0001) //            Avg. X spins =       0.00E+00
(PID.TID 0000.0001) //         No. Y exchanges =              0
(PID.TID 0000.0001) //            Max. Y spins =              0
(PID.TID 0000.0001) //            Min. Y spins =     1000000000
(PID.TID 0000.0001) //          Total. Y spins =              0
(PID.TID 0000.0001) //            Avg. Y spins =       0.00E+00
(PID.TID 0000.0001) // o Tile number: 000247
(PID.TID 0000.0001) //         No. X exchanges =              0
(PID.TID 0000.0001) //            Max. X spins =              0
(PID.TID 0000.0001) //            Min. X spins =     1000000000
(PID.TID 0000.0001) //          Total. X spins =              0
(PID.TID 0000.0001) //            Avg. X spins =       0.00E+00
(PID.TID 0000.0001) //         No. Y exchanges =              0
(PID.TID 0000.0001) //            Max. Y spins =              0
(PID.TID 0000.0001) //            Min. Y spins =     1000000000
(PID.TID 0000.0001) //          Total. Y spins =              0
(PID.TID 0000.0001) //            Avg. Y spins =       0.00E+00
(PID.TID 0000.0001) // o Tile number: 000248
(PID.TID 0000.0001) //         No. X exchanges =              0
(PID.TID 0000.0001) //            Max. X spins =              0
(PID.TID 0000.0001) //            Min. X spins =     1000000000
(PID.TID 0000.0001) //          Total. X spins =              0
(PID.TID 0000.0001) //            Avg. X spins =       0.00E+00
(PID.TID 0000.0001) //         No. Y exchanges =              0
(PID.TID 0000.0001) //            Max. Y spins =              0
(PID.TID 0000.0001) //            Min. Y spins =     1000000000
(PID.TID 0000.0001) //          Total. Y spins =              0
(PID.TID 0000.0001) //            Avg. Y spins =       0.00E+00
(PID.TID 0000.0001) // o Tile number: 000249
(PID.TID 0000.0001) //         No. X exchanges =              0
(PID.TID 0000.0001) //            Max. X spins =              0
(PID.TID 0000.0001) //            Min. X spins =     1000000000
(PID.TID 0000.0001) //          Total. X spins =              0
(PID.TID 0000.0001) //            Avg. X spins =       0.00E+00
(PID.TID 0000.0001) //         No. Y exchanges =              0
(PID.TID 0000.0001) //            Max. Y spins =              0
(PID.TID 0000.0001) //            Min. Y spins =     1000000000
(PID.TID 0000.0001) //          Total. Y spins =              0
(PID.TID 0000.0001) //            Avg. Y spins =       0.00E+00
(PID.TID 0000.0001) // o Tile number: 000250
(PID.TID 0000.0001) //         No. X exchanges =              0
(PID.TID 0000.0001) //            Max. X spins =              0
(PID.TID 0000.0001) //            Min. X spins =     1000000000
(PID.TID 0000.0001) //          Total. X spins =              0
(PID.TID 0000.0001) //            Avg. X spins =       0.00E+00
(PID.TID 0000.0001) //         No. Y exchanges =              0
(PID.TID 0000.0001) //            Max. Y spins =              0
(PID.TID 0000.0001) //            Min. Y spins =     1000000000
(PID.TID 0000.0001) //          Total. Y spins =              0
(PID.TID 0000.0001) //            Avg. Y spins =       0.00E+00
(PID.TID 0000.0001) // o Tile number: 000251
(PID.TID 0000.0001) //         No. X exchanges =              0
(PID.TID 0000.0001) //            Max. X spins =              0
(PID.TID 0000.0001) //            Min. X spins =     1000000000
(PID.TID 0000.0001) //          Total. X spins =              0
(PID.TID 0000.0001) //            Avg. X spins =       0.00E+00
(PID.TID 0000.0001) //         No. Y exchanges =              0
(PID.TID 0000.0001) //            Max. Y spins =              0
(PID.TID 0000.0001) //            Min. Y spins =     1000000000
(PID.TID 0000.0001) //          Total. Y spins =              0
(PID.TID 0000.0001) //            Avg. Y spins =       0.00E+00
(PID.TID 0000.0001) // o Tile number: 000252
(PID.TID 0000.0001) //         No. X exchanges =              0
(PID.TID 0000.0001) //            Max. X spins =              0
(PID.TID 0000.0001) //            Min. X spins =     1000000000
(PID.TID 0000.0001) //          Total. X spins =              0
(PID.TID 0000.0001) //            Avg. X spins =       0.00E+00
(PID.TID 0000.0001) //         No. Y exchanges =              0
(PID.TID 0000.0001) //            Max. Y spins =              0
(PID.TID 0000.0001) //            Min. Y spins =     1000000000
(PID.TID 0000.0001) //          Total. Y spins =              0
(PID.TID 0000.0001) //            Avg. Y spins =       0.00E+00
(PID.TID 0000.0001) // o Tile number: 000253
(PID.TID 0000.0001) //         No. X exchanges =              0
(PID.TID 0000.0001) //            Max. X spins =              0
(PID.TID 0000.0001) //            Min. X spins =     1000000000
(PID.TID 0000.0001) //          Total. X spins =              0
(PID.TID 0000.0001) //            Avg. X spins =       0.00E+00
(PID.TID 0000.0001) //         No. Y exchanges =              0
(PID.TID 0000.0001) //            Max. Y spins =              0
(PID.TID 0000.0001) //            Min. Y spins =     1000000000
(PID.TID 0000.0001) //          Total. Y spins =              0
(PID.TID 0000.0001) //            Avg. Y spins =       0.00E+00
(PID.TID 0000.0001) // o Tile number: 000254
(PID.TID 0000.0001) //         No. X exchanges =              0
(PID.TID 0000.0001) //            Max. X spins =              0
(PID.TID 0000.0001) //            Min. X spins =     1000000000
(PID.TID 0000.0001) //          Total. X spins =              0
(PID.TID 0000.0001) //            Avg. X spins =       0.00E+00
(PID.TID 0000.0001) //         No. Y exchanges =              0
(PID.TID 0000.0001) //            Max. Y spins =              0
(PID.TID 0000.0001) //            Min. Y spins =     1000000000
(PID.TID 0000.0001) //          Total. Y spins =              0
(PID.TID 0000.0001) //            Avg. Y spins =       0.00E+00
(PID.TID 0000.0001) // o Tile number: 000255
(PID.TID 0000.0001) //         No. X exchanges =              0
(PID.TID 0000.0001) //            Max. X spins =              0
(PID.TID 0000.0001) //            Min. X spins =     1000000000
(PID.TID 0000.0001) //          Total. X spins =              0
(PID.TID 0000.0001) //            Avg. X spins =       0.00E+00
(PID.TID 0000.0001) //         No. Y exchanges =              0
(PID.TID 0000.0001) //            Max. Y spins =              0
(PID.TID 0000.0001) //            Min. Y spins =     1000000000
(PID.TID 0000.0001) //          Total. Y spins =              0
(PID.TID 0000.0001) //            Avg. Y spins =       0.00E+00
(PID.TID 0000.0001) // o Tile number: 000256
(PID.TID 0000.0001) //         No. X exchanges =              0
(PID.TID 0000.0001) //            Max. X spins =              0
(PID.TID 0000.0001) //            Min. X spins =     1000000000
(PID.TID 0000.0001) //          Total. X spins =              0
(PID.TID 0000.0001) //            Avg. X spins =       0.00E+00
(PID.TID 0000.0001) //         No. Y exchanges =              0
(PID.TID 0000.0001) //            Max. Y spins =              0
(PID.TID 0000.0001) //            Min. Y spins =     1000000000
(PID.TID 0000.0001) //          Total. Y spins =              0
(PID.TID 0000.0001) //            Avg. Y spins =       0.00E+00
(PID.TID 0000.0001) // o Thread number: 000001
(PID.TID 0000.0001) //            No. barriers =         264088
(PID.TID 0000.0001) //      Max. barrier spins =              1
(PID.TID 0000.0001) //      Min. barrier spins =              1
(PID.TID 0000.0001) //     Total barrier spins =         264088
(PID.TID 0000.0001) //      Avg. barrier spins =       1.00E+00
PROGRAM MAIN: Execution ended Normally
